running example: Mon Jun 30 16:51:18 CEST 2025

setting up example...


running mesher on 4 processors...


 **********************************************
 *** Specfem 2-D Mesher - MPI version       ***
 **********************************************

 Running Git version of the code corresponding to unknown
 dating unknown

 Reading the parameter file...

 Title of the simulation: Axisymmetric simple simulation

 Axisymmetric simulation

 Receiver lines:
   Nb of line sets =            3

 Parameter file successfully read


 Mesh from internal meshing:
   Materials:
   Nb of solid, fluid or porous materials =            2

 --------
 Material #           1  isotropic
 rho,cp,cs   =    2500.0000000000000        3400.0000000000000        1963.0000000000000
 Qkappa, Qmu =    100.00000000000000        100.00000000000000
 Material is solid
 --------
 Material #           2  isotropic
 rho,cp,cs   =    1020.0000000000000        1500.0000000000000        0.0000000000000000
 Qkappa, Qmu =    9999.0000000000000        9999.0000000000000
 Material is fluid
 --------

 Reading interface data from file: ./DATA/./interfaces_axisym.dat
 Reading            2  points for interface            1
 Reading            2  points for interface            2
 Reading            2  points for interface            3

 Total number of layers in z direction =            2
 There are           60  spectral elements along Z in layer            1
 There are           60  spectral elements along Z in layer            2

 Total number of spectral elements along X =          180
 Total number of spectral elements along Z =          120

 Regions:
   Nb of regions in the mesh =            2

 ------
 Region            1
 IX from            1  to          180
 IZ from            1  to           60
 Material #            1  isotropic
 Material is solid
 vp     =    3400.00000
 vs     =    1963.00000
 rho    =    2500.00000
 Poisson's ratio =   0.249996528
 QKappa =    100.000000
 Qmu    =    100.000000
 ------
 Region            2
 IX from            1  to          180
 IZ from           61  to          120
 Material #            2  isotropic
 Material is fluid
 vp     =    1500.00000
 vs     =    0.00000000
 rho    =    1020.00000
 Poisson's ratio =   0.500000000
 QKappa =    9999.00000
 Qmu    =    9999.00000
 ------

 creating mesh from internal meshing:
   Total number of spectral elements         =        21600

 PML mesh elements:
   using internal mesh, PML elements will be determined in solver run...

 The mesh contains        21600  elements

 Control elements have            4  nodes

 Reading in SOURCE file...

 Source           1
   Position xs, zs =    0.0000000000000000        2500.0000000000000

   Source type:            1
   (1=force, 2=moment tensor)

   Force source:
   Angle of the source (deg) =    0.0000000000000000

   Time function type:           1
   ( 0=Normalized Gaussian,  1=Ricker,          2=First derivative,  3=Gaussian,        4=Dirac,
     5=Heaviside,            6=Ocean type I,    7=Ocean type II,     8=Read from file,  9=Burst,
    10=Sinusoidal,          11=Ormsby,         12=Brune,            13=Smoothed Brune, 14=Yoffe )
   Ricker wavelet (second-derivative):
   Frequency, delay   =    10.000000000000000        0.0000000000000000
   Multiplying factor =    10000000000.000000

 all sources are okay

 Normals to surface not needed

 Node coordinates:

 reading node coordinates from interfaces...

 Mesh surfaces:
   determining acoustic free surface...
   number of acoustic elements with free surface =            0

   determining absorbing boundary surfaces...
   number of elements with absorbing boundaries =          480

 Axisymmetric mesh:

 Axial elements:          120


 Mesh dimensions:
   Min and max value of X in the grid =    0.0000000000000000        6400.0000000000000
   Min and max value of Z in the grid =    0.0000000000000000        4800.0000000000009

 checking mesh elements for invalid Jacobians...
   number of elements:        21600
   NGNOD             :            4
   AXISYM            :  T
   all elements have valid Jacobians

 Mesh partitioning:
   decomposing mesh using NPROC =            4

 Graph construction:
   graph adjacency done

 ************ Computing elements load ************
 Number of elastic elements :           0
 Number of acoustic elements :        9625
 Number of viscoelastic elements :        9625
 Number of viscoacoustic elements :           0
 Number of elastic PML elements :           0
 Number of acoustic PML elements :        1175
 Number of viscoelastic PML elements :        1175
 Number of viscoacoustic PML elements :           0
 *************************************************


 Partitioning type: SCOTCH

 Coupled interfaces:
 nedges_coupled (acoustic/elastic)     =          180
   after iteration            1 repartitioning of all coupled elements done
 nedges_coupled (acoustic/poroelastic) =            0
 nedges_coupled (poroelastic/elastic)  =            0

 Local numbering:
   NPROC:            4
   number of elements:        21600

 decompose mesh all done

 Absorbing boundaries:
   nedge_bound   :          480
   nelemabs_merge:          480

 Saving databases:
   database file: ./OUTPUT_FILES/Database00000.bin
   slice            0  has number of spectral elements =        3052

   database file: ./OUTPUT_FILES/Database00001.bin
   slice            1  has number of spectral elements =        8228

   database file: ./OUTPUT_FILES/Database00002.bin
   slice            2  has number of spectral elements =        6842

   database file: ./OUTPUT_FILES/Database00003.bin
   slice            3  has number of spectral elements =        3478

   VTK mesh files:
   written file: ./OUTPUT_FILES//mesh_materials.vtk
   written file: ./OUTPUT_FILES//mesh_partition_number.vtk
   done

 creating STATIONS file...

 writing the ./DATA/STATIONS file


 There are            3  receivers

 Target positions (x,z) of the            3  receivers

 Receiver            1  =    0.0000000000000000        2500.0000000000000
 Receiver            2  =    2500.0000000000000        2500.0000000000000
 Receiver            3  =    2500.0000000000000        1500.0000000000000

 This will be a parallel simulation on            4  processor cores


running solver on 4 processors...


 **********************************************
 **** Specfem 2-D Solver - MPI version     ****
 **********************************************

 Running Git version of the code corresponding to unknown
 dating unknown

 There are            4  MPI processes
 Processes are numbered from 0 to            3

 There is a total of            4  slices


 NDIM =            2

 NGLLX =            5
 NGLLZ =            5

 using single precision for the calculations

 smallest and largest possible floating-point numbers are:    1.17549435E-38   3.40282347E+38

 Reading the parameter file...

 Title of the simulation: Axisymmetric simple simulation

 Axisymmetric simulation

 Receiver lines:
   Nb of line sets =            3

 Parameter file successfully read

 Reading in SOURCE file...

 Source           1
   Position xs, zs =    0.0000000000000000        2500.0000000000000

   Source type:            1
   (1=force, 2=moment tensor)

   Force source:
   Angle of the source (deg) =    0.0000000000000000

   Time function type:           1
   ( 0=Normalized Gaussian,  1=Ricker,          2=First derivative,  3=Gaussian,        4=Dirac,
     5=Heaviside,            6=Ocean type I,    7=Ocean type II,     8=Read from file,  9=Burst,
    10=Sinusoidal,          11=Ormsby,         12=Brune,            13=Smoothed Brune, 14=Yoffe )
   Ricker wavelet (second-derivative):
   Frequency, delay   =    10.000000000000000        0.0000000000000000
   Multiplying factor =    10000000000.000000

 all sources are okay



 -------------------------------------------------------------------------------
 -------------------------------------------------------------------------------
 Program SPECFEM2D:
 -------------------------------------------------------------------------------
 -------------------------------------------------------------------------------
 Axisymmetric simple simulation
 -------------------------------------------------------------------------------
 -------------------------------------------------------------------------------
 D a t e : 30 - 06 - 2025                                 T i m e  : 16:51:19
 -------------------------------------------------------------------------------
 -------------------------------------------------------------------------------


 -----------------------------------------------------
 --- A x i s y m m e t r i c   S i m u l a t i o n ---
 -----------------------------------------------------


 C o n t r o l
 =============

     Number of spectral element control nodes. . .(npgeo) =   22255
     Number of space dimensions. . . . . . . . . . (NDIM) =       2


 C o n t r o l
 =============

     Display frequency . . . (NTSTEP_BETWEEN_OUTPUT_INFO) =    500
     Color display . . . . . . . . . . . . . . . (colors) =      1
      == 0     black and white display
      == 1     color display
     Numbered mesh . . . . . . . . . . . . . . .(numbers) =      0
      == 0     do not number the mesh
      == 1     number the mesh


 C o n t r o l
 =============

     Seismograms recording type . . . . . . .(seismotype) = 1
     Angle for first line of receivers. . . . .(anglerec) =   0.00


 C o n t r o l
 =============

     Read external initial field. . . . . .(initialfield) =      F
     Add Bielak conditions (add_Bielak_conditions_bottom) =      F
     Add Bielak conditions .(add_Bielak_conditions_right) =      F
     Add Bielak conditions . .(add_Bielak_conditions_top) =      F
     Add Bielak conditions. .(add_Bielak_conditions_left) =      F
     Attenuation in solid . . .(ATTENUATION_VISCOELASTIC) =      T
     Attenuation in fluid . . (ATTENUATION_VISCOACOUSTIC) =      F
     Save grid in ASCII file or not . (output_grid_ASCII) =      F
     Save a file with total energy or not.(OUTPUT_ENERGY) =      F


 C o n t r o l
 =============

     Vector display type . . . . . . . . .(imagetype_postscript) =      1
     Percentage of cut for vector plots. . . . . . . .(cutsnaps) =   1.00
     Subsampling of velocity model display. (subsamp_postscript) =      1


 I t e r a t i o n s
 ===================

     Number of time iterations . . . . .(NSTEP) =    4500
     Time step increment. . . . . . . . . .(DT) =   6.000000E-04
     Total simulation duration . . . . . (ttot) =   2.700000E+00


 reading mesh databases:
 reading nodal coordinates...

 -- Spectral Elements --


     Number of spectral elements . . . . . . . . .  (nspec) =  21600
     Number of control nodes per element . . . . . (NGNOD) =      4
     Number of points in X-direction . . . . . . . (NGLLX) =      5
     Number of points in Y-direction . . . . . . . (NGLLZ) =      5
     Number of points per element. . . . . . (NGLLX*NGLLZ) =     25
     Number of points for display . . . . . . (pointsdisp) =      6
     Number of element material sets . . . . . . . (numat) =      2
     Number of acoustic forcing elements (nelem_acforcing) =      0
     Number of acoustic free surf (nelem_acoustic_surface) =      0

 reading attenuation setup...
 reading material properties..


 M a t e r i a l   s e t s :   2 D  (p o r o) e l a s t i c i t y
 ======================================================

     Number of material sets . . . . . . (numat) =     2


     ----------------------------------------
     -- Elastic (solid) isotropic material --
     ----------------------------------------
     Material set number. . . . . . . . (jmat) =     1
     P-wave velocity. . . . . . . . . . . (cp) = 3.40000000E+03
     S-wave velocity. . . . . . . . . . . (cs) = 1.96300000E+03
     Mass density. . . . . . . . . . (density) = 2.50000000E+03
     Poisson's ratio. . . . . . . . .(poisson) = 2.49996529E-01
     First Lame parameter Lambda. . . (lambda) = 9.63315500E+09
     Second Lame parameter Mu. . . . . . .(mu) = 9.63342250E+09
     Bulk modulus Kappa . . . . . . . .(kappa) = 1.60554367E+10
     Young's modulus E. . . . . . . . .(young) = 2.40834894E+10
     QKappa_attenuation .  . . . . . .(QKappa) = 1.00000000E+02
     Qmu_attenuation . . . . . . . . . . (Qmu) = 1.00000000E+02



     -------------------------------
     -- Acoustic (fluid) material --
     -------------------------------
     Material set number. . . . . . . . (jmat) =     2
     P-wave velocity. . . . . . . . . . . (cp) = 1.50000000E+03
     Mass density. . . . . . . . . . (density) = 1.02000000E+03
     Bulk modulus Kappa . . . . . . . .(kappa) = 2.29500000E+09
     QKappa_attenuation. . . . . . . .(QKappa) = 9.99900000E+03
     Qmu_attenuation. . . . . . . . . . .(Qmu) = 9.99900000E+03

 reading interfaces informations...
   number of interfaces         =            2

 reading absorbing boundary...
   Total number of absorbing elements =          480

   any absorbing boundary flag        =  T
   PML boundary flag                  =  T
   Stacey boundary flag               =  F


 Absorbing boundaries:
   using PML boundary conditions

 reading acoustic forcing...
   acoustic forcing                             =  F
   number of acoustic forcing boundary elements =            0

 reading free surface information...
   number of acoustic free surface boundary elements =            0

 reading coupling surfaces...
   number of fluid-solid edges  =          180
   number of fluid-poro  edges  =            0
   number of solid-poro  edges  =            0

 reading tangential curves...
   number of tangential curve nodes =            0

 reading axial elements...
   number of axial elements     =           35

  Total number of elements on the axis :          120


 done reading mesh databases


 Setting up mesh

 Generating global mesh numbering (fast version)...

 Mesh numbering:
   Total number of elements:        21600

   Total number of acoustic elements           =        10800
   Total number of elastic/visco/poro elements =        10800

 Approximate total number of grid points in the mesh
 (with a few duplicates coming from MPI buffers):       348208

 Approximate number of acoustic degrees of freedom in the mesh:       174104
 Approximate number of elastic degrees of freedom in the mesh:       348208
   (there are 2 degrees of freedom per point for elastic elements)

 Approximate total number of degrees of freedom in the mesh
 (sum of the two values above):       522312

  (for simplicity viscoelastic or poroelastic elements, if any,
   are counted as elastic in the above three estimates;
   in reality they have more degrees of freedom)

 Mesh dimensions:
   Xmin,Xmax of the whole mesh =    0.0000000000000000        6400.0000000000000
   Zmin,Zmax of the whole mesh =    0.0000000000000000        4800.0000000000009

 Material properties:
   MODEL                   : default
   nspec                   :        21600
   external velocity model :  F

   setting up material arrays
   fluid:
     rho : min/max =    1020.00000     /   2500.00000
     vp  : min/max =    1500.00000     /   3400.00000

   elasticitiy:
     rho : min/max =    1020.00000     /   2500.00000
     vs  : min/max =    0.00000000     /   1963.00000
     vp  : min/max =    1500.00000     /   3400.00000

   all material arrays done

   written file: ./OUTPUT_FILES/mesh00000_vs.vtk
   written file: ./OUTPUT_FILES/mesh00000_vp.vtk
   written file: ./OUTPUT_FILES/mesh00000_rho.vtk

 Domains:
   total number of acoustic elements        =        10800
   total number of elastic elements         =        10800
   total number of poroelastic elements     =            0
   total number of electromagnetic elements =            0

 Setting up MPI communication arrays

   maximum number of MPI interfaces (for a single slice) =            3

   total MPI interface points:         2820

   checking acoustic interfaces:
   total number of global acoustic interface points:          932
   total number of global points assembled by acoustic MPI interfaces:         932
   interfaces okay

   main process:
   number of MPI interfaces in acoustic domain    =            0
   number of MPI interfaces in elastic domain     =            2
   number of MPI interfaces in poroelastic domain =            0
   number of MPI interfaces in electromagnetic domain =            0

   number of outer elements  =          128
   number of inner elements  =         2924

   percentage of outer elements    4.19396973     %
   percentage of inner elements    95.8060303     %

   number of global nodes in outer elements  =         2565
   number of global nodes in inner elements  =        47293

   determining communication phases:
   elastic domains:
   total number of outer/inner elements =          468       10332
   total percentage of outer elements    4.33333588     %
   total percentage of inner elements    95.6666641     %

   acoustic domains:
   total number of outer/inner elements =          232       10568
   total percentage of outer elements    2.14814758     %
   total percentage of inner elements    97.8518524     %

 All mesh setup done successfully

 Sources
 =======

   Total number of sources:            1

   Setting parameters for source           1

     Source Type. . . . . . . . . . . . . . = Collocated Force
     X-position (meters). . . . . . . . . . =    0.0000000000E+00
     Y-position (meters). . . . . . . . . . =    2.5000000000E+03
     Fundamental frequency (Hz) . . . . . . =    1.0000000000E+01
     Time delay (s) . . . . . . . . . . . . =    0.0000000000E+00
     Multiplying factor . . . . . . . . . . =    1.0000000000E+10
     Angle from vertical direction (deg). . =    0.0000000000E+00

     Source time function
     Ricker wavelet (second-derivative)

 determining source onset times...
   simulation start time t0 =  -0.12000000000000000       s

   Source:            1
     Onset time. . . . . . =  -0.12000000000000000
     Fundamental period. . =   0.10000000000000001
     Fundamental frequency =    10.000000000000000
     The onset time is ok

 Source:            1
 *******************************
  locating force source
 *******************************

 Force source:
             original x:    0.00000000
             original z:    2500.00000
 Closest estimate found:    0.00000000      m away
  in rank            1
  in element         2777
  in acoustic domain
  at xi,gamma coordinates =   -1.0000000000000000        0.0000000000000000


 end of force source detection


 receivers:

 Total number of receivers =            3


 ********************
  locating receivers
 ********************

 reading receiver information from the ./DATA/STATIONS file


 Station #            1     AA      S0001
             original x:    0.00000000
             original z:    2500.00000
 Closest estimate found:    0.00000000      m away
  in rank            1
  in element         2777
  in acoustic domain
  at xi,gamma coordinates =   -1.0000000000000000        0.0000000000000000
 Distance from source:    0.00000000      m


 Station #            2     AA      S0002
             original x:    2500.00000
             original z:    2500.00000
 Closest estimate found:    0.00000000      m away
  in rank            1
  in element         2847
  in acoustic domain
  at xi,gamma coordinates =  -0.37499999999998851        0.0000000000000000
 Distance from source:    2500.00000      m


 Station #            3     AA      S0003
             original x:    2500.00000
             original z:    1500.00000
 Closest estimate found:    0.00000000      m away
  in rank            1
  in element          497
  in elastic domain
  at xi,gamma coordinates =  -0.37499999999998851        0.0000000000000000
 Distance from source:    2692.58252      m

 maximum error in location of all the receivers:    0.00000000      m

 end of receiver detection

 found a total of            3  receivers, this is okay


 Preparing timerun:

 Movie simulation:
   color images         - JPEG image type:            2
   number of steps between outputs       :          100

 Preparing image coloring: jpeg
   allocating color image arrays
   locating all the pixels of color images
   total number of image pixels =       480000
   done locating all the pixels of color images
   coloring image background based on velocity

 Checking mesh and stability

 ********
 Model: P (or PI) velocity min,max =    1500.0000000000000        3400.0000000000000
 Model: S velocity min,max         =    1962.9999832908813        1962.9999832908813
 Model: density min,max            =    1020.0000000000000        2500.0000000000000
 ********


 *********************************************
 *** Verification of simulation parameters ***
 *********************************************

 *** Max grid size =    40.000000000000909
 *** Min grid size =    35.555555555554747
 *** Max/min ratio =    1.1250000000000511

 *** Minimum GLL point distance  =    6.1394902985247102
 *** Average GLL point distance  =    8.8888888888886868

 *** Minimum period resolved     =    3.3333333333334089E-002
 *** Maximum frequency resolved  =    29.999999999999321      Hz

 *** Maximum suggested time step                 =    9.0286622037128090E-004
 *** Maximum suggested (Ricker) source frequency =    11.999999999999730

 *** for DT :    6.00000028E-04
 *** Max CFL stability condition of the time scheme based on P wave velocity (must be below about 0.50 or so) =   0.33227514024905330

 ----
 Number of points per wavelength:
 ----
   Source            1
   maximum dominant source frequency =    25.000000000000000      Hz


   Nb pts / lambdaP_fmax min =    6.00000000
   Nb pts / lambdaP_fmax max =    13.6000004

   Nb pts / lambdaS_fmax min =    7.85199976
   Nb pts / lambdaS_fmax max =    7.85199976

 -----------------------------------------

 histogram of min number of points per S wavelength in solid regions:

 there are        10800  elements out of        21600  in solid regions
   (i.e.,    50.0000000     % of the total)

 (too small = poor resolution of calculations -
  too big = wasting memory and CPU time)
 (threshold value is around 4.5 points per S wavelength
  in elastic regions and 5.5 per P wavelength in fluid regions):

   7.77347994      -    7.78133202               0     0.00000000      %
   7.78133202      -    7.78918409               0     0.00000000      %
   7.78918409      -    7.79703617               0     0.00000000      %
   7.79703617      -    7.80488777               0     0.00000000      %
   7.80488777      -    7.81273985               0     0.00000000      %
   7.81273985      -    7.82059193               0     0.00000000      %
   7.82059193      -    7.82844400               0     0.00000000      %
   7.82844400      -    7.83629608               0     0.00000000      %
   7.83629608      -    7.84414816               0     0.00000000      %
   7.84414816      -    7.85199976            9785     90.6018524      %
   7.85199976      -    7.85985184            1015     9.39814854      %
   7.85985184      -    7.86770391               0     0.00000000      %
   7.86770391      -    7.87555599               0     0.00000000      %
   7.87555599      -    7.88340807               0     0.00000000      %
   7.88340807      -    7.89126015               0     0.00000000      %
   7.89126015      -    7.89911175               0     0.00000000      %
   7.89911175      -    7.90696383               0     0.00000000      %
   7.90696383      -    7.91481590               0     0.00000000      %
   7.91481590      -    7.92266798               0     0.00000000      %
   7.92266798      -    7.93052006               0     0.00000000      %

 total percentage =    100.00000000000000       %

 -----------------------------------------

 histogram of min number of points per P wavelength in fluid regions:

 there are        10800  elements out of        21600  in fluid regions
   (i.e.,    50.0000000     % of the total)

 (too small = poor resolution of calculations -
  too big = wasting memory and CPU time)
 (threshold value is around 4.5 points per S wavelength
  in elastic regions and 5.5 per P wavelength in fluid regions):

   5.94000006      -    5.94600010               0     0.00000000      %
   5.94600010      -    5.95200014               0     0.00000000      %
   5.95200014      -    5.95800018               0     0.00000000      %
   5.95800018      -    5.96400023               0     0.00000000      %
   5.96400023      -    5.96999979               0     0.00000000      %
   5.96999979      -    5.97599983               0     0.00000000      %
   5.97599983      -    5.98199987               0     0.00000000      %
   5.98199987      -    5.98799992               0     0.00000000      %
   5.98799992      -    5.99399996               0     0.00000000      %
   5.99399996      -    6.00000000             541     5.00925922      %
   6.00000000      -    6.00600004           10259     94.9907379      %
   6.00600004      -    6.01200008               0     0.00000000      %
   6.01200008      -    6.01800013               0     0.00000000      %
   6.01800013      -    6.02400017               0     0.00000000      %
   6.02400017      -    6.03000021               0     0.00000000      %
   6.03000021      -    6.03599977               0     0.00000000      %
   6.03599977      -    6.04199982               0     0.00000000      %
   6.04199982      -    6.04799986               0     0.00000000      %
   6.04799986      -    6.05399990               0     0.00000000      %
   6.05399990      -    6.05999994               0     0.00000000      %

 total percentage =    100.00000000000000       %


 total number of elements in fluid and solid regions =        21600

 mesh resolution output files:
   written file: ./OUTPUT_FILES/mesh00000_res_minimum_period.vtk
   written file: ./OUTPUT_FILES/mesh00000_res_dt_suggested.vtk

 Preparing timerun constants

 Preparing array allocations
   arrays for acoustic domains
   arrays for elastic domains
   done initialization


 Preparing PML
   rotate PML activated   : F
   backward reconstruction: F
   total number of PML spectral elements:         2350

   number of points on acoustic abs in this slice =            0
   number of points on  elastic abs in this slice =          377

   defining PML coefficients:
     using mesh dimension : xmin/xmax =    0.00000000     /   6400.00000
                            zmin/zmax =    0.00000000     /   4800.00000
     thickness PML: left   =    0.00000000
                    right  =    177.777771
                    bottom =    200.000000
                    top    =    200.000000
     maximum dominant frequency (sources):    10.0000000
     PML coefficients all set

 Attenuation:
   viscoelastic  attenuation:  T (shear & bulk attenuation in elastic domains)
   viscoacoustic attenuation:  F (bulk attenuation in acoustic domains)
   poro-fluid    attenuation:  F (viscous attenuation in poroelastic domains)
   permittivity  attenuation:  F (for electromagnetic materials)

 Preparing attenuation
   The code uses a constant Q quality factor, but approximated
   based on a series of Zener standard linear solids (SLS).
   Approximation is performed in the following frequency band:

   number of SLS bodies:            3

   Attenuation in viscoelastic or viscoacoustic parts of the model:
   reference frequency (Hz) :    10.0000000
                period  (s) :   0.100000001

   assuming velocity model given at unrelaxed state (infinite frequency)

   preparing attenuation within PML region
   done PML attenuation setup

 Preparing mass matrices
   initializing mass matrices
   inverting mass matrices


 Preparing source time function
   time stepping scheme:   Newmark
   time stepping stages:            1
   time step size      :    6.00000028E-04

   number of time steps:         4500
   number of sources   :            1

   saving the source time function in a text file...

 preparing optimized arrays
   fused array done

 Elapsed time for preparing timerun in seconds =   0.40126600000000001

 ************
  time loop
 ************
               scheme:         Newmark

            time step:    6.00000028E-04  s
 number of time steps:         4500
 total simulated time:    2.70000005      seconds
 start time: -0.119999997      seconds


 =========================================
 =  T i m e  e v o l u t i o n  l o o p  =
 =========================================


 Starting time iteration loop ...


 ******************************************************************
 Time step #       5 out of    4500
 ******************************************************************
 Time: -1.176000E-01 s
 We have done    8.89086500E-02 % of the total
 Max norm of vector field in solid (elastic) =    0.00000000
 Max absolute value of scalar field in fluid (acoustic) =    1.12282077E-03
 Elapsed time in seconds =    4.1999816894531250E-002
 Elapsed time in hh:mm:ss =      0 h 00 m 00 s
 Mean elapsed time per time step in seconds =    8.3999633789062500E-003
 Time steps remaining =         4495
 Estimated remaining time in seconds =    37.757835388183594
 Estimated remaining time in hh:mm:ss =      0 h 00 m 37 s
 Estimated total run time in seconds =    37.799835205078125
 Estimated total run time in hh:mm:ss =      0 h 00 m 37 s
 The run will finish approximately on: Mon Jun 30, 2025 16:52

 Creating color image of size          800  x          631  for time step            5
 drawing scalar image of the forward wavefield displacement...
 Color image maximum amplitude =    2.3494128242873558E-007
 Color image created

 Creating color image of size          800  x          631  for time step          100
 drawing scalar image of the forward wavefield displacement...
 Color image maximum amplitude =    3.1792442314326763E-003
 Color image created

 Creating color image of size          800  x          631  for time step          200
 drawing scalar image of the forward wavefield displacement...
 Color image maximum amplitude =    2.1408308297395706E-002
 Color image created

 Creating color image of size          800  x          631  for time step          300
 drawing scalar image of the forward wavefield displacement...
 Color image maximum amplitude =    3.5649645142257214E-003
 Color image created

 Creating color image of size          800  x          631  for time step          400
 drawing scalar image of the forward wavefield displacement...
 Color image maximum amplitude =    8.8754175521899015E-005
 Color image created


 ******************************************************************
 Time step #     500 out of    4500
 ******************************************************************
 Time:    0.1794 s
 We have done    11.0913534     % of the total
 Max norm of vector field in solid (elastic) =    4.24273894E-05
 Max absolute value of scalar field in fluid (acoustic) =    1.41078043
 Elapsed time in seconds =    4.7679998874664307
 Elapsed time in hh:mm:ss =      0 h 00 m 04 s
 Mean elapsed time per time step in seconds =    9.5359997749328608E-003
 Time steps remaining =         4000
 Estimated remaining time in seconds =    38.143999099731445
 Estimated remaining time in hh:mm:ss =      0 h 00 m 38 s
 Estimated total run time in seconds =    42.911998987197876
 Estimated total run time in hh:mm:ss =      0 h 00 m 42 s
 The run will finish approximately on: Mon Jun 30, 2025 16:52

 Creating color image of size          800  x          631  for time step          500
 drawing scalar image of the forward wavefield displacement...
 Color image maximum amplitude =    5.5902983149280772E-005
 Color image created

 Creating color image of size          800  x          631  for time step          600
 drawing scalar image of the forward wavefield displacement...
 Color image maximum amplitude =    4.1771723772399127E-005
 Color image created

 Creating color image of size          800  x          631  for time step          700
 drawing scalar image of the forward wavefield displacement...
 Color image maximum amplitude =    3.2248506613541394E-005
 Color image created

 Creating color image of size          800  x          631  for time step          800
 drawing scalar image of the forward wavefield displacement...
 Color image maximum amplitude =    2.7199655960430391E-005
 Color image created

 Creating color image of size          800  x          631  for time step          900
 drawing scalar image of the forward wavefield displacement...
 Color image maximum amplitude =    2.2869249733048491E-005
 Color image created


 ******************************************************************
 Time step #    1000 out of    4500
 ******************************************************************
 Time:    0.4794 s
 We have done    22.2049351     % of the total
 Max norm of vector field in solid (elastic) =    1.03780094E-05
 Max absolute value of scalar field in fluid (acoustic) =   0.783475101
 Elapsed time in seconds =    9.5319998264312744
 Elapsed time in hh:mm:ss =      0 h 00 m 09 s
 Mean elapsed time per time step in seconds =    9.5319998264312752E-003
 Time steps remaining =         3500
 Estimated remaining time in seconds =    33.361999392509460
 Estimated remaining time in hh:mm:ss =      0 h 00 m 33 s
 Estimated total run time in seconds =    42.893999218940735
 Estimated total run time in hh:mm:ss =      0 h 00 m 42 s
 The run will finish approximately on: Mon Jun 30, 2025 16:52


 Total number of time steps done:         1000
 Writing the seismograms by main proc alone took    1.02310004E-02  seconds

 Creating color image of size          800  x          631  for time step         1000
 drawing scalar image of the forward wavefield displacement...
 Color image maximum amplitude =    2.0282637706259266E-005
 Color image created

 Creating color image of size          800  x          631  for time step         1100
 drawing scalar image of the forward wavefield displacement...
 Color image maximum amplitude =    1.7735063011059538E-005
 Color image created

 Creating color image of size          800  x          631  for time step         1200
 drawing scalar image of the forward wavefield displacement...
 Color image maximum amplitude =    1.6156267520273104E-005
 Color image created

 Creating color image of size          800  x          631  for time step         1300
 drawing scalar image of the forward wavefield displacement...
 Color image maximum amplitude =    1.4507219930237625E-005
 Color image created

 Creating color image of size          800  x          631  for time step         1400
 drawing scalar image of the forward wavefield displacement...
 Color image maximum amplitude =    1.3400137504504528E-005
 Color image created


 ******************************************************************
 Time step #    1500 out of    4500
 ******************************************************************
 Time:    0.7794 s
 We have done    33.3185158     % of the total
 Max norm of vector field in solid (elastic) =    6.01238526E-06
 Max absolute value of scalar field in fluid (acoustic) =   0.492982388
 Elapsed time in seconds =    14.303999900817871
 Elapsed time in hh:mm:ss =      0 h 00 m 14 s
 Mean elapsed time per time step in seconds =    9.5359999338785802E-003
 Time steps remaining =         3000
 Estimated remaining time in seconds =    28.607999801635742
 Estimated remaining time in hh:mm:ss =      0 h 00 m 28 s
 Estimated total run time in seconds =    42.911999702453613
 Estimated total run time in hh:mm:ss =      0 h 00 m 42 s
 The run will finish approximately on: Mon Jun 30, 2025 16:52

 Creating color image of size          800  x          631  for time step         1500
 drawing scalar image of the forward wavefield displacement...
 Color image maximum amplitude =    1.2230289030412678E-005
 Color image created

 Creating color image of size          800  x          631  for time step         1600
 drawing scalar image of the forward wavefield displacement...
 Color image maximum amplitude =    1.1498203093651682E-005
 Color image created

 Creating color image of size          800  x          631  for time step         1700
 drawing scalar image of the forward wavefield displacement...
 Color image maximum amplitude =    1.0637193554430269E-005
 Color image created

 Creating color image of size          800  x          631  for time step         1800
 drawing scalar image of the forward wavefield displacement...
 Color image maximum amplitude =    1.0007934179157019E-005
 Color image created

 Creating color image of size          800  x          631  for time step         1900
 drawing scalar image of the forward wavefield displacement...
 Color image maximum amplitude =    9.3460121206589974E-006
 Color image created


 ******************************************************************
 Time step #    2000 out of    4500
 ******************************************************************
 Time:    1.0794 s
 We have done    44.4320946     % of the total
 Max norm of vector field in solid (elastic) =    5.19536115E-06
 Max absolute value of scalar field in fluid (acoustic) =   0.402691036
 Elapsed time in seconds =    19.069999933242798
 Elapsed time in hh:mm:ss =      0 h 00 m 19 s
 Mean elapsed time per time step in seconds =    9.5349999666213981E-003
 Time steps remaining =         2500
 Estimated remaining time in seconds =    23.837499916553494
 Estimated remaining time in hh:mm:ss =      0 h 00 m 23 s
 Estimated total run time in seconds =    42.907499849796295
 Estimated total run time in hh:mm:ss =      0 h 00 m 42 s
 The run will finish approximately on: Mon Jun 30, 2025 16:52


 Total number of time steps done:         2000
 Writing the seismograms by main proc alone took    9.41799954E-03  seconds

 Creating color image of size          800  x          631  for time step         2000
 drawing scalar image of the forward wavefield displacement...
 Color image maximum amplitude =    8.9252262114314362E-006
 Color image created

 Creating color image of size          800  x          631  for time step         2100
 drawing scalar image of the forward wavefield displacement...
 Color image maximum amplitude =    8.3894756244262680E-006
 Color image created

 Creating color image of size          800  x          631  for time step         2200
 drawing scalar image of the forward wavefield displacement...
 Color image maximum amplitude =    7.9872615970089100E-006
 Color image created

 Creating color image of size          800  x          631  for time step         2300
 drawing scalar image of the forward wavefield displacement...
 Color image maximum amplitude =    7.5551029112830292E-006
 Color image created

 Creating color image of size          800  x          631  for time step         2400
 drawing scalar image of the forward wavefield displacement...
 Color image maximum amplitude =    7.2936068136186805E-006
 Color image created


 ******************************************************************
 Time step #    2500 out of    4500
 ******************************************************************
 Time:    1.3794 s
 We have done    55.5456772     % of the total
 Max norm of vector field in solid (elastic) =    4.50563266E-06
 Max absolute value of scalar field in fluid (acoustic) =   0.350061774
 Elapsed time in seconds =    23.851999998092651
 Elapsed time in hh:mm:ss =      0 h 00 m 23 s
 Mean elapsed time per time step in seconds =    9.5407999992370603E-003
 Time steps remaining =         2000
 Estimated remaining time in seconds =    19.081599998474122
 Estimated remaining time in hh:mm:ss =      0 h 00 m 19 s
 Estimated total run time in seconds =    42.933599996566770
 Estimated total run time in hh:mm:ss =      0 h 00 m 42 s
 The run will finish approximately on: Mon Jun 30, 2025 16:52

 Creating color image of size          800  x          631  for time step         2500
 drawing scalar image of the forward wavefield displacement...
 Color image maximum amplitude =    6.9335337684606202E-006
 Color image created

 Creating color image of size          800  x          631  for time step         2600
 drawing scalar image of the forward wavefield displacement...
 Color image maximum amplitude =    6.5051058300014120E-006
 Color image created

 Creating color image of size          800  x          631  for time step         2700
 drawing scalar image of the forward wavefield displacement...
 Color image maximum amplitude =    5.9842291193490382E-006
 Color image created

 Creating color image of size          800  x          631  for time step         2800
 drawing scalar image of the forward wavefield displacement...
 Color image maximum amplitude =    5.5399632401531562E-006
 Color image created

 Creating color image of size          800  x          631  for time step         2900
 drawing scalar image of the forward wavefield displacement...
 Color image maximum amplitude =    5.2753721320186742E-006
 Color image created


 ******************************************************************
 Time step #    3000 out of    4500
 ******************************************************************
 Time:    1.6794 s
 We have done    66.6592560     % of the total
 Max norm of vector field in solid (elastic) =    3.96252699E-06
 Max absolute value of scalar field in fluid (acoustic) =   0.308792561
 Elapsed time in seconds =    28.642999887466431
 Elapsed time in hh:mm:ss =      0 h 00 m 28 s
 Mean elapsed time per time step in seconds =    9.5476666291554775E-003
 Time steps remaining =         1500
 Estimated remaining time in seconds =    14.321499943733217
 Estimated remaining time in hh:mm:ss =      0 h 00 m 14 s
 Estimated total run time in seconds =    42.964499831199646
 Estimated total run time in hh:mm:ss =      0 h 00 m 42 s
 The run will finish approximately on: Mon Jun 30, 2025 16:52


 Total number of time steps done:         3000
 Writing the seismograms by main proc alone took    1.01239998E-02  seconds

 Creating color image of size          800  x          631  for time step         3000
 drawing scalar image of the forward wavefield displacement...
 Color image maximum amplitude =    5.0790922614396550E-006
 Color image created

 Creating color image of size          800  x          631  for time step         3100
 drawing scalar image of the forward wavefield displacement...
 Color image maximum amplitude =    4.8898805289354641E-006
 Color image created

 Creating color image of size          800  x          631  for time step         3200
 drawing scalar image of the forward wavefield displacement...
 Color image maximum amplitude =    4.6900836423446890E-006
 Color image created

 Creating color image of size          800  x          631  for time step         3300
 drawing scalar image of the forward wavefield displacement...
 Color image maximum amplitude =    4.5048127503832802E-006
 Color image created

 Creating color image of size          800  x          631  for time step         3400
 drawing scalar image of the forward wavefield displacement...
 Color image maximum amplitude =    4.3468685362313408E-006
 Color image created


 ******************************************************************
 Time step #    3500 out of    4500
 ******************************************************************
 Time:    1.9794 s
 We have done    77.7728348     % of the total
 Max norm of vector field in solid (elastic) =    3.53339146E-06
 Max absolute value of scalar field in fluid (acoustic) =   0.275776684
 Elapsed time in seconds =    33.427999973297119
 Elapsed time in hh:mm:ss =      0 h 00 m 33 s
 Mean elapsed time per time step in seconds =    9.5508571352277485E-003
 Time steps remaining =         1000
 Estimated remaining time in seconds =    9.5508571352277478
 Estimated remaining time in hh:mm:ss =      0 h 00 m 09 s
 Estimated total run time in seconds =    42.978857108524863
 Estimated total run time in hh:mm:ss =      0 h 00 m 42 s
 The run will finish approximately on: Mon Jun 30, 2025 16:52

 Creating color image of size          800  x          631  for time step         3500
 drawing scalar image of the forward wavefield displacement...
 Color image maximum amplitude =    4.1981802496593446E-006
 Color image created

 Creating color image of size          800  x          631  for time step         3600
 drawing scalar image of the forward wavefield displacement...
 Color image maximum amplitude =    4.0453510337101761E-006
 Color image created

 Creating color image of size          800  x          631  for time step         3700
 drawing scalar image of the forward wavefield displacement...
 Color image maximum amplitude =    3.9034548535710201E-006
 Color image created

 Creating color image of size          800  x          631  for time step         3800
 drawing scalar image of the forward wavefield displacement...
 Color image maximum amplitude =    3.7552858884737361E-006
 Color image created

 Creating color image of size          800  x          631  for time step         3900
 drawing scalar image of the forward wavefield displacement...
 Color image maximum amplitude =    3.6406804611033294E-006
 Color image created


 ******************************************************************
 Time step #    4000 out of    4500
 ******************************************************************
 Time:    2.2794 s
 We have done    88.8864212     % of the total
 Max norm of vector field in solid (elastic) =    3.18339653E-06
 Max absolute value of scalar field in fluid (acoustic) =   0.248575345
 Elapsed time in seconds =    38.203999996185303
 Elapsed time in hh:mm:ss =      0 h 00 m 38 s
 Mean elapsed time per time step in seconds =    9.5509999990463258E-003
 Time steps remaining =          500
 Estimated remaining time in seconds =    4.7754999995231628
 Estimated remaining time in hh:mm:ss =      0 h 00 m 04 s
 Estimated total run time in seconds =    42.979499995708466
 Estimated total run time in hh:mm:ss =      0 h 00 m 42 s
 The run will finish approximately on: Mon Jun 30, 2025 16:52


 Total number of time steps done:         4000
 Writing the seismograms by main proc alone took    9.05700028E-03  seconds

 Creating color image of size          800  x          631  for time step         4000
 drawing scalar image of the forward wavefield displacement...
 Color image maximum amplitude =    3.5233260859968141E-006
 Color image created

 Creating color image of size          800  x          631  for time step         4100
 drawing scalar image of the forward wavefield displacement...
 Color image maximum amplitude =    3.3939504646696150E-006
 Color image created

 Creating color image of size          800  x          631  for time step         4200
 drawing scalar image of the forward wavefield displacement...
 Color image maximum amplitude =    3.3011879168043379E-006
 Color image created

 Creating color image of size          800  x          631  for time step         4300
 drawing scalar image of the forward wavefield displacement...
 Color image maximum amplitude =    3.1943327485350892E-006
 Color image created

 Creating color image of size          800  x          631  for time step         4400
 drawing scalar image of the forward wavefield displacement...
 Color image maximum amplitude =    3.0915164188627386E-006
 Color image created


 ******************************************************************
 Time step #    4500 out of    4500
 ******************************************************************
 Time:    2.5794 s
 We have done    100.000000     % of the total
 Max norm of vector field in solid (elastic) =    2.88853266E-06
 Max absolute value of scalar field in fluid (acoustic) =   0.225616023
 Elapsed time in seconds =    42.979999780654907
 Elapsed time in hh:mm:ss =      0 h 00 m 42 s
 Mean elapsed time per time step in seconds =    9.5511110623677578E-003
 Time steps remaining =            0
 Estimated remaining time in seconds =    0.0000000000000000
 Estimated remaining time in hh:mm:ss =      0 h 00 m 00 s
 Estimated total run time in seconds =    42.979999780654907
 Estimated total run time in hh:mm:ss =      0 h 00 m 42 s


 Total number of time steps done:         4500
 Writing the seismograms by main proc alone took    4.67099994E-03  seconds

 Creating color image of size          800  x          631  for time step         4500
 drawing scalar image of the forward wavefield displacement...
 Color image maximum amplitude =    3.0070227694523055E-006
 Color image created


 Time loop finished. Timing info:
 Total duration of the time loop in seconds  =    42.9959259      s
 Total duration of the time loop in hh:mm:ss =      0 h 00 m 42 s

 Total number of time steps =         4500
 Average duration of a time step of the time loop =    9.55465063E-03  s

 Total number of spectral elements in the mesh =        21600
     of which        19250  are regular elements
     and         2350  are PML elements.
 Average duration of the calculation per spectral element =    4.42344941E-07  s


 Total duration of the timeloop measured using date and time of the system
     in seconds     =    42.9990005      s
     in in hh:mm:ss =      0 h 00 m 42 s



 -------------------------------------------------------------------------------
 -------------------------------------------------------------------------------
 Program SPECFEM2D:
 -------------------------------------------------------------------------------
 -------------------------------------------------------------------------------
 Axisymmetric simple simulation
 -------------------------------------------------------------------------------
 -------------------------------------------------------------------------------
 D a t e : 30 - 06 - 2025                                 T i m e  : 16:52:02
 -------------------------------------------------------------------------------
 -------------------------------------------------------------------------------

see results in directory: OUTPUT_FILES/

done
Mon Jun 30 16:52:02 CEST 2025
