running example: Mon Jun 30 16:58:23 CEST 2025

setting up example...

 Generate mesh

 Number of elements at the surface of the whole circle =         1024

 Size of a spectral element at the surface =    78.183932796955361       km

 Since minimum S velocity in the crust is about    3.4600000000000000       km/s
 and since one spectral element is needed to resolve the shortest wavelength,
 this mesh is accurate approximately down to a minimum period of    22.596512369062243       seconds

 Generating the grid for SPECFEM2D...

 generating only half the mesh


 Total number of spectral elements =        10368

 Generating the global numbering...
 Total number of points of the global mesh:        41921

 Generating the coordinates of the points of the global mesh...

 Writing the external mesh database for SPECFEM2D...
 using ASCII file format to store the mesh databases
 Done writing the external mesh database for SPECFEM2D

 number of elements in contact with the symmetry axis =          192

 All Done


done w/ script: make_specific_mesher_for_2D_Earth.sh




running mesher on 4 processors...


 **********************************************
 *** Specfem 2-D Mesher - MPI version       ***
 **********************************************

 Running Git version of the code corresponding to unknown
 dating unknown

 Reading the parameter file...

 Title of the simulation: AK135F for half a disk for axisymmetric runs

 Axisymmetric simulation

 Receiver lines:
   Nb of line sets =            1

 Parameter file successfully read


 Mesh from external meshing:
   Reading materials from external material properties file: ./MESH/Nummaterial_velocity_file_NO_MUD

   defined =            4 undefined =            0

   Materials:
   Nb of solid, fluid or porous materials =            4

 --------
 Material #           1  isotropic
 rho,cp,cs   =    3320.0000000000000        8040.0000000000000        4480.0000000000000
 Qkappa, Qmu =    9999.0000000000000        9999.0000000000000
 Material is solid
 --------
 Material #           2  isotropic
 rho,cp,cs   =    4985.0000000000000        12503.000000000000        6805.0000000000000
 Qkappa, Qmu =    9999.0000000000000        9999.0000000000000
 Material is solid
 --------
 Material #           3  isotropic
 rho,cp,cs   =    11539.000000000000        9751.0000000000000        0.0000000000000000
 Qkappa, Qmu =    9999.0000000000000        9999.0000000000000
 Material is fluid
 --------
 Material #           4  isotropic
 rho,cp,cs   =    13004.000000000000        11256.000000000000        3663.0000000000000
 Qkappa, Qmu =    9999.0000000000000        9999.0000000000000
 Material is solid
 --------

   Reading data from external mesh file: ./MESH/Mesh_AK135F_NO_MUD
     NGNOD =            9
     Total number of spectral elements   :       10368
     Total number of nodal points        :       41921

   Reading materials from external mesh file: ./MESH/Material_AK135F_NO_MUD

 PML mesh elements:
   Total number of PML elements =            0

 The mesh contains        10368  elements

 Control elements have            9  nodes

 Reading in SOURCE file...

 Source           1
   Position xs, zs =    0.0000000000000000        6103278.0000000000

   Source type:            1
   (1=force, 2=moment tensor)

   Force source:
   Angle of the source (deg) =    0.0000000000000000

   Time function type:           1
   ( 0=Normalized Gaussian,  1=Ricker,          2=First derivative,  3=Gaussian,        4=Dirac,
     5=Heaviside,            6=Ocean type I,    7=Ocean type II,     8=Read from file,  9=Burst,
    10=Sinusoidal,          11=Ormsby,         12=Brune,            13=Smoothed Brune, 14=Yoffe )
   Ricker wavelet (second-derivative):
   Frequency, delay   =    1.4000000000000000E-002   0.0000000000000000
   Multiplying factor =    10000000000.000000

 all sources are okay

 Normals to surface not needed

 Node coordinates:
   Reading node coords from external mesh file: ./MESH/Nodes_AK135F_NO_MUD
     node coords: X min/max =    0.0000000000000000      /   6371000.0000000000
                  Z min/max =   -6371000.0000000000      /   6371000.0000000000

 Mesh surfaces:
   Reading acoustic surface from external mesh file: ./MESH/Surf_free_AK135F_NO_MUD
   Total number of surface elements         :            0
   Total number of acoustic surface elements:            0

 Axisymmetric mesh:
   Reading axial elements from external mesh file: ./MESH/Symmetry_axis_elements_AK135F_NO_MUD
 Number of elements on the axis:          192
 testing for duplicates in the axial element input file...
 done testing for duplicates

     Total number of axial elements:          192


 Axial elements:          192


 Mesh dimensions:
   Min and max value of X in the grid =    0.0000000000000000        6371000.0000000000
   Min and max value of Z in the grid =   -6371000.0000000000        6371000.0000000000

 checking mesh elements for invalid Jacobians...
   number of elements:        10368
   NGNOD             :            9
   AXISYM            :  T
   all elements have valid Jacobians

 Mesh partitioning:
   decomposing mesh using NPROC =            4

 Graph construction:
   graph adjacency done

 ************ Computing elements load ************
 Number of elastic elements :        7424
 Number of acoustic elements :        2944
 Number of viscoelastic elements :           0
 Number of viscoacoustic elements :           0
 Number of elastic PML elements :           0
 Number of acoustic PML elements :           0
 Number of viscoelastic PML elements :           0
 Number of viscoacoustic PML elements :           0
 *************************************************


 Partitioning type: SCOTCH

 Coupled interfaces:
 nedges_coupled (acoustic/elastic)     =          192
   after iteration            2 repartitioning of all coupled elements done
 nedges_coupled (acoustic/poroelastic) =            0
 nedges_coupled (poroelastic/elastic)  =            0

 Local numbering:
   NPROC:            4
   number of elements:        10368

 decompose mesh all done

 Saving databases:
   database file: ./OUTPUT_FILES/Database00000.bin
   slice            0  has number of spectral elements =        2120

   database file: ./OUTPUT_FILES/Database00001.bin
   slice            1  has number of spectral elements =        2638

   database file: ./OUTPUT_FILES/Database00002.bin
   slice            2  has number of spectral elements =        2095

   database file: ./OUTPUT_FILES/Database00003.bin
   slice            3  has number of spectral elements =        3515

   VTK mesh files:
   written file: ./OUTPUT_FILES//mesh_materials.vtk
   written file: ./OUTPUT_FILES//mesh_partition_number.vtk
   done

 creating STATIONS file...

 writing the ./DATA/STATIONS file


 There are            2  receivers

 Target positions (x,z) of the            2  receivers

 Receiver            1  =    6050000.0000000000        900000.00000000000
 Receiver            2  =    6050000.0000000000       -900000.00000000000

 This will be a parallel simulation on            4  processor cores


running solver on 4 processors...


 **********************************************
 **** Specfem 2-D Solver - MPI version     ****
 **********************************************

 Running Git version of the code corresponding to unknown
 dating unknown

 There are            4  MPI processes
 Processes are numbered from 0 to            3

 There is a total of            4  slices


 NDIM =            2

 NGLLX =            5
 NGLLZ =            5

 using single precision for the calculations

 smallest and largest possible floating-point numbers are:    1.17549435E-38   3.40282347E+38

 Reading the parameter file...

 Title of the simulation: AK135F for half a disk for axisymmetric runs

 Axisymmetric simulation

 Receiver lines:
   Nb of line sets =            1

 Parameter file successfully read

 Reading in SOURCE file...

 Source           1
   Position xs, zs =    0.0000000000000000        6103278.0000000000

   Source type:            1
   (1=force, 2=moment tensor)

   Force source:
   Angle of the source (deg) =    0.0000000000000000

   Time function type:           1
   ( 0=Normalized Gaussian,  1=Ricker,          2=First derivative,  3=Gaussian,        4=Dirac,
     5=Heaviside,            6=Ocean type I,    7=Ocean type II,     8=Read from file,  9=Burst,
    10=Sinusoidal,          11=Ormsby,         12=Brune,            13=Smoothed Brune, 14=Yoffe )
   Ricker wavelet (second-derivative):
   Frequency, delay   =    1.4000000000000000E-002   0.0000000000000000
   Multiplying factor =    10000000000.000000

 all sources are okay



 -------------------------------------------------------------------------------
 -------------------------------------------------------------------------------
 Program SPECFEM2D:
 -------------------------------------------------------------------------------
 -------------------------------------------------------------------------------
 AK135F for half a disk for axisymmetric runs
 -------------------------------------------------------------------------------
 -------------------------------------------------------------------------------
 D a t e : 30 - 06 - 2025                                 T i m e  : 16:58:25
 -------------------------------------------------------------------------------
 -------------------------------------------------------------------------------


 -----------------------------------------------------
 --- A x i s y m m e t r i c   S i m u l a t i o n ---
 -----------------------------------------------------


 C o n t r o l
 =============

     Number of spectral element control nodes. . .(npgeo) =   42414
     Number of space dimensions. . . . . . . . . . (NDIM) =       2


 C o n t r o l
 =============

     Display frequency . . . (NTSTEP_BETWEEN_OUTPUT_INFO) =    500
     Color display . . . . . . . . . . . . . . . (colors) =      1
      == 0     black and white display
      == 1     color display
     Numbered mesh . . . . . . . . . . . . . . .(numbers) =      0
      == 0     do not number the mesh
      == 1     number the mesh


 C o n t r o l
 =============

     Seismograms recording type . . . . . . .(seismotype) = 1
     Angle for first line of receivers. . . . .(anglerec) =   0.00


 C o n t r o l
 =============

     Read external initial field. . . . . .(initialfield) =      F
     Add Bielak conditions (add_Bielak_conditions_bottom) =      F
     Add Bielak conditions .(add_Bielak_conditions_right) =      F
     Add Bielak conditions . .(add_Bielak_conditions_top) =      F
     Add Bielak conditions. .(add_Bielak_conditions_left) =      F
     Attenuation in solid . . .(ATTENUATION_VISCOELASTIC) =      F
     Attenuation in fluid . . (ATTENUATION_VISCOACOUSTIC) =      F
     Save grid in ASCII file or not . (output_grid_ASCII) =      F
     Save a file with total energy or not.(OUTPUT_ENERGY) =      F


 C o n t r o l
 =============

     Vector display type . . . . . . . . .(imagetype_postscript) =      1
     Percentage of cut for vector plots. . . . . . . .(cutsnaps) =   1.00
     Subsampling of velocity model display. (subsamp_postscript) =      1


 I t e r a t i o n s
 ===================

     Number of time iterations . . . . .(NSTEP) =    8000
     Time step increment. . . . . . . . . .(DT) =   2.500000E-01
     Total simulation duration . . . . . (ttot) =   2.000000E+03


 reading mesh databases:
 reading nodal coordinates...

 -- Spectral Elements --


     Number of spectral elements . . . . . . . . .  (nspec) =  10368
     Number of control nodes per element . . . . . (NGNOD) =      9
     Number of points in X-direction . . . . . . . (NGLLX) =      5
     Number of points in Y-direction . . . . . . . (NGLLZ) =      5
     Number of points per element. . . . . . (NGLLX*NGLLZ) =     25
     Number of points for display . . . . . . (pointsdisp) =      6
     Number of element material sets . . . . . . . (numat) =      4
     Number of acoustic forcing elements (nelem_acforcing) =      0
     Number of acoustic free surf (nelem_acoustic_surface) =      0

 reading attenuation setup...
 reading material properties..


 M a t e r i a l   s e t s :   2 D  (p o r o) e l a s t i c i t y
 ======================================================

     Number of material sets . . . . . . (numat) =     4


     ----------------------------------------
     -- Elastic (solid) isotropic material --
     ----------------------------------------
     Material set number. . . . . . . . (jmat) =     1
     P-wave velocity. . . . . . . . . . . (cp) = 8.04000000E+03
     S-wave velocity. . . . . . . . . . . (cs) = 4.48000000E+03
     Mass density. . . . . . . . . . (density) = 3.32000000E+03
     Poisson's ratio. . . . . . . . .(poisson) = 2.74850127E-01
     First Lame parameter Lambda. . . (lambda) = 8.13426560E+10
     Second Lame parameter Mu. . . . . . .(mu) = 6.66337280E+10
     Bulk modulus Kappa . . . . . . . .(kappa) = 1.25765141E+11
     Young's modulus E. . . . . . . . .(young) = 1.69896033E+11
     QKappa_attenuation .  . . . . . .(QKappa) = 9.99900000E+03
     Qmu_attenuation . . . . . . . . . . (Qmu) = 9.99900000E+03



     ----------------------------------------
     -- Elastic (solid) isotropic material --
     ----------------------------------------
     Material set number. . . . . . . . (jmat) =     2
     P-wave velocity. . . . . . . . . . . (cp) = 1.25030000E+04
     S-wave velocity. . . . . . . . . . . (cs) = 6.80500000E+03
     Mass density. . . . . . . . . . (density) = 4.98500000E+03
     Poisson's ratio. . . . . . . . .(poisson) = 2.89541472E-01
     First Lame parameter Lambda. . . (lambda) = 3.17589161E+11
     Second Lame parameter Mu. . . . . . .(mu) = 2.30845505E+11
     Bulk modulus Kappa . . . . . . . .(kappa) = 4.71486164E+11
     Young's modulus E. . . . . . . . .(young) = 5.95369704E+11
     QKappa_attenuation .  . . . . . .(QKappa) = 9.99900000E+03
     Qmu_attenuation . . . . . . . . . . (Qmu) = 9.99900000E+03



     -------------------------------
     -- Acoustic (fluid) material --
     -------------------------------
     Material set number. . . . . . . . (jmat) =     3
     P-wave velocity. . . . . . . . . . . (cp) = 9.75100000E+03
     Mass density. . . . . . . . . . (density) = 1.15390000E+04
     Bulk modulus Kappa . . . . . . . .(kappa) = 1.09715121E+12
     QKappa_attenuation. . . . . . . .(QKappa) = 9.99900000E+03
     Qmu_attenuation. . . . . . . . . . .(Qmu) = 9.99900000E+03



     ----------------------------------------
     -- Elastic (solid) isotropic material --
     ----------------------------------------
     Material set number. . . . . . . . (jmat) =     4
     P-wave velocity. . . . . . . . . . . (cp) = 1.12560000E+04
     S-wave velocity. . . . . . . . . . . (cs) = 3.66300000E+03
     Mass density. . . . . . . . . . (density) = 1.30040000E+04
     Poisson's ratio. . . . . . . . .(poisson) = 4.40776956E-01
     First Lame parameter Lambda. . . (lambda) = 1.29861062E+12
     Second Lame parameter Mu. . . . . . .(mu) = 1.74482067E+11
     Bulk modulus Kappa . . . . . . . .(kappa) = 1.41493200E+12
     Young's modulus E. . . . . . . . .(young) = 5.02779483E+11
     QKappa_attenuation .  . . . . . .(QKappa) = 9.99900000E+03
     Qmu_attenuation . . . . . . . . . . (Qmu) = 9.99900000E+03

 reading interfaces informations...
   number of interfaces         =            3

 reading absorbing boundary...
   Total number of absorbing elements =            0

   any absorbing boundary flag        =  F
   PML boundary flag                  =  F
   Stacey boundary flag               =  F

 reading acoustic forcing...
   acoustic forcing                             =  F
   number of acoustic forcing boundary elements =            0

 reading free surface information...
   number of acoustic free surface boundary elements =            0

 reading coupling surfaces...
   number of fluid-solid edges  =          192
   number of fluid-poro  edges  =            0
   number of solid-poro  edges  =            0

 reading tangential curves...
   number of tangential curve nodes =            0

 reading axial elements...
   number of axial elements     =            0

  Total number of elements on the axis :          192


 done reading mesh databases


 Setting up mesh

 Generating global mesh numbering (fast version)...

 Mesh numbering:
   Total number of elements:        10368

   Total number of acoustic elements           =         2944
   Total number of elastic/visco/poro elements =         7424

 Approximate total number of grid points in the mesh
 (with a few duplicates coming from MPI buffers):       167768

 Approximate number of acoustic degrees of freedom in the mesh:        47638
 Approximate number of elastic degrees of freedom in the mesh:       240260
   (there are 2 degrees of freedom per point for elastic elements)

 Approximate total number of degrees of freedom in the mesh
 (sum of the two values above):       287898

  (for simplicity viscoelastic or poroelastic elements, if any,
   are counted as elastic in the above three estimates;
   in reality they have more degrees of freedom)

 Mesh dimensions:
   Xmin,Xmax of the whole mesh =    0.0000000000000000        6371000.0000000000
   Zmin,Zmax of the whole mesh =   -6371000.0000000000        6371000.0000000000

 Material properties:
   MODEL                   : external
   nspec                   :        10368
   external velocity model :  T

   assigning an external velocity and density model
   model selected             : external
   setup with binary database :            0

   external model: ak135-f
   done reading external model

   setting up material arrays
   setting up anisotropic arrays
   fluid:
     rho : min/max =    2.72000003     /   13.0122004
     vp  : min/max =    5800.00000     /   13660.0996

   elasticitiy:
     rho : min/max =    2.72000003     /   13.0122004
     vs  : min/max =    0.00000000     /   7281.70020
     vp  : min/max =    5800.00000     /   13660.0996

   all material arrays done

   written file: ./OUTPUT_FILES/mesh00000_vs.vtk
   written file: ./OUTPUT_FILES/mesh00000_vp.vtk
   written file: ./OUTPUT_FILES/mesh00000_rho.vtk

 Domains:
   total number of acoustic elements        =         2944
   total number of elastic elements         =         7424
   total number of poroelastic elements     =            0
   total number of electromagnetic elements =            0

 Mixed acoustic/elastic simulation

   Beginning of fluid/solid edge detection
   Checking fluid/solid edge topology...
   End of fluid/solid edge detection


 Setting up MPI communication arrays

   maximum number of MPI interfaces (for a single slice) =            3

   total MPI interface points:         1976

   checking acoustic interfaces:
   total number of global acoustic interface points:          717
   total number of global points assembled by acoustic MPI interfaces:         717
   interfaces okay

   main process:
   number of MPI interfaces in acoustic domain    =            2
   number of MPI interfaces in elastic domain     =            3
   number of MPI interfaces in poroelastic domain =            0
   number of MPI interfaces in electromagnetic domain =            0

   number of outer elements  =          137
   number of inner elements  =         1983

   percentage of outer elements    6.46226501     %
   percentage of inner elements    93.5377350     %

   number of global nodes in outer elements  =         2741
   number of global nodes in inner elements  =        32181

   determining communication phases:
   elastic domains:
   total number of outer/inner elements =          307        7117
   total percentage of outer elements    4.13523865     %
   total percentage of inner elements    95.8647614     %

   acoustic domains:
   total number of outer/inner elements =          177        2767
   total percentage of outer elements    6.01222992     %
   total percentage of inner elements    93.9877701     %

 All mesh setup done successfully

 Sources
 =======

   Total number of sources:            1

   Setting parameters for source           1

     Source Type. . . . . . . . . . . . . . = Collocated Force
     X-position (meters). . . . . . . . . . =    0.0000000000E+00
     Y-position (meters). . . . . . . . . . =    6.1032780000E+06
     Fundamental frequency (Hz) . . . . . . =    1.4000000000E-02
     Time delay (s) . . . . . . . . . . . . =    0.0000000000E+00
     Multiplying factor . . . . . . . . . . =    1.0000000000E+10
     Angle from vertical direction (deg). . =    0.0000000000E+00

     Source time function
     Ricker wavelet (second-derivative)

 determining source onset times...
   simulation start time t0 =   -85.714285714285708       s

   Source:            1
     Onset time. . . . . . =   -85.714285714285708
     Fundamental period. . =    71.428571428571431
     Fundamental frequency =    1.4000000000000000E-002
     The onset time is ok

 Source:            1
 *******************************
  locating force source
 *******************************

 Force source:
             original x:    0.00000000
             original z:    6103278.00
 Closest estimate found:    4.79826953E-13  m away
  in rank            2
  in element          436
  in elastic domain
  at xi,gamma coordinates =   -1.0000000000000100       0.88721212121217763


 end of force source detection


 receivers:

 Total number of receivers =            2


 ********************
  locating receivers
 ********************

 reading receiver information from the ./DATA/STATIONS file


 Station #            1     AA      S0001
             original x:    6050000.00
             original z:    900000.000
 Closest estimate found:    0.00000000      m away
  in rank            0
  in element          605
  in elastic domain
  at xi,gamma coordinates =   0.93233671493244419      -0.70982304260175277
 Distance from source:    7979762.00      m


 Station #            2     AA      S0002
             original x:    6050000.00
             original z:   -900000.000
 Closest estimate found:    9.38570333E-10  m away
  in rank            0
  in element          630
  in elastic domain
  at xi,gamma coordinates =  -0.93233671493244352      -0.70982304260176921
 Distance from source:    9254642.00      m

 maximum error in location of all the receivers:    9.38570333E-10  m

 end of receiver detection

 found a total of            2  receivers, this is okay


 Preparing timerun:

 Movie simulation:
   color images         - JPEG image type:            2
   number of steps between outputs       :          500

 Preparing image coloring: jpeg
   allocating color image arrays
   locating all the pixels of color images
   total number of image pixels =      1068758
   done locating all the pixels of color images
   coloring image background based on velocity

 Checking mesh and stability

 ********
 Model: P (or PI) velocity min,max =    5799.9999389928935        13660.099673101240
 Model: S velocity min,max         =    3459.9999818030528        7281.7002992599237
 Model: density min,max            =    2.7200000286102295        13.012200355529785
 ********


 *********************************************
 *** Verification of simulation parameters ***
 *********************************************

 *** Max grid size =    138209.51475059538
 *** Min grid size =    31668.000134825408
 *** Max/min ratio =    4.3643272123965255

 *** Minimum GLL point distance  =    5468.2138012906189
 *** Average GLL point distance  =    7917.0000337063520

 *** Minimum period resolved     =    28.491691517294644
 *** Maximum frequency resolved  =    3.5097951253367794E-002 Hz

 *** Maximum suggested time step                 =   0.28824154109831157
 *** Maximum suggested (Ricker) source frequency =    1.4039180501347118E-002

 *** for DT :   0.250000000
 *** Max CFL stability condition of the time scheme based on P wave velocity (must be below about 0.50 or so) =   0.43366407050039263

 ----
 Number of points per wavelength:
 ----
   Source            1
   maximum dominant source frequency =    3.5000000000000003E-002 Hz


   Nb pts / lambdaP_fmax min =    8.47822952
   Nb pts / lambdaP_fmax max =    30.3741722

   Nb pts / lambdaS_fmax min =    5.01399326
   Nb pts / lambdaS_fmax max =    9.75706959

 -----------------------------------------

 histogram of min number of points per S wavelength in solid regions:

 there are         7424  elements out of        10368  in solid regions
   (i.e.,    71.6049347     % of the total)

 (too small = poor resolution of calculations -
  too big = wasting memory and CPU time)
 (threshold value is around 4.5 points per S wavelength
  in elastic regions and 5.5 per P wavelength in fluid regions):

   5.01399326      -    5.25114679             640     8.62068939      %
   5.25114679      -    5.48830080             128     1.72413790      %
   5.48830080      -    5.72545433             256     3.44827580      %
   5.72545433      -    5.96260834             256     3.44827580      %
   5.96260834      -    6.19976234             256     3.44827580      %
   6.19976234      -    6.43691587             128     1.72413790      %
   6.43691587      -    6.67406988             524     7.05818987      %
   6.67406988      -    6.91122389             948     12.7693968      %
   6.91122389      -    7.14837742             480     6.46551704      %
   7.14837742      -    7.38553143             428     5.76508617      %
   7.38553143      -    7.62268496             556     7.48922396      %
   7.62268496      -    7.85983896             164     2.20905161      %
   7.85983896      -    8.09699249             276     3.71767235      %
   8.09699249      -    8.33414650             416     5.60344839      %
   8.33414650      -    8.57130051             516     6.95043087      %
   8.57130051      -    8.80845451             148     1.99353445      %
   8.80845451      -    9.04560852             456     6.14224148      %
   9.04560852      -    9.28276157             598     8.05495644      %
   9.28276157      -    9.51991558             218     2.93642235      %
   9.51991558      -    9.75706959              32    0.431034476      %

 total percentage =    100.00000000000001       %

 -----------------------------------------

 histogram of min number of points per P wavelength in fluid regions:

 there are         2944  elements out of        10368  in fluid regions
   (i.e.,    28.3950615     % of the total)

 (too small = poor resolution of calculations -
  too big = wasting memory and CPU time)
 (threshold value is around 4.5 points per S wavelength
  in elastic regions and 5.5 per P wavelength in fluid regions):

   9.09218311      -    9.56527901             192     6.52173901      %
   9.56527901      -    10.0383749              64     2.17391300      %
   10.0383749      -    10.5114708             128     4.34782600      %
   10.5114708      -    10.9845657             192     6.52173901      %
   10.9845657      -    11.4576616             320     10.8695650      %
   11.4576616      -    11.9307575             320     10.8695650      %
   11.9307575      -    12.4038534             448     15.2173910      %
   12.4038534      -    12.8769493             576     19.5652180      %
   12.8769493      -    13.3500452              64     2.17391300      %
   13.3500452      -    13.8231411              64     2.17391300      %
   13.8231411      -    14.2962370              64     2.17391300      %
   14.2962370      -    14.7693329              64     2.17391300      %
   14.7693329      -    15.2424288               0     0.00000000      %
   15.2424288      -    15.7155247              64     2.17391300      %
   15.7155247      -    16.1886196             128     4.34782600      %
   16.1886196      -    16.6617165               0     0.00000000      %
   16.6617165      -    17.1348114              64     2.17391300      %
   17.1348114      -    17.6079082               0     0.00000000      %
   17.6079082      -    18.0810032             128     4.34782600      %
   18.0810032      -    18.5541000              64     2.17391300      %

 total percentage =    100.00000000000001       %


 total number of elements in fluid and solid regions =        10368

 mesh resolution output files:
   written file: ./OUTPUT_FILES/mesh00000_res_minimum_period.vtk
   written file: ./OUTPUT_FILES/mesh00000_res_dt_suggested.vtk

 Preparing timerun constants

 Preparing array allocations
   arrays for acoustic domains
   arrays for elastic domains
   done initialization

 Attenuation:
   viscoelastic  attenuation:  F (shear & bulk attenuation in elastic domains)
   viscoacoustic attenuation:  F (bulk attenuation in acoustic domains)
   poro-fluid    attenuation:  F (viscous attenuation in poroelastic domains)
   permittivity  attenuation:  F (for electromagnetic materials)

 Preparing mass matrices
   initializing mass matrices
   inverting mass matrices


 Preparing source time function
   time stepping scheme:   Newmark
   time stepping stages:            1
   time step size      :   0.250000000

   number of time steps:         8000
   number of sources   :            1

   saving the source time function in a text file...

 preparing optimized arrays
   fused array done

 Elapsed time for preparing timerun in seconds =    9.6504999999999952E-002

 ************
  time loop
 ************
               scheme:         Newmark

            time step:   0.250000000      s
 number of time steps:         8000
 total simulated time:    2000.00000      seconds
 start time:  -85.7142868      seconds


 =========================================
 =  T i m e  e v o l u t i o n  l o o p  =
 =========================================


 Starting time iteration loop ...


 ******************************************************************
 Time step #       5 out of    8000
 ******************************************************************
 Time: -8.471429E+01 s
 We have done    5.00062518E-02 % of the total
 Max norm of vector field in solid (elastic) =    1.32764111E-08
 Max absolute value of scalar field in fluid (acoustic) =    0.00000000
 Elapsed time in seconds =    9.9999904632568359E-003
 Elapsed time in hh:mm:ss =      0 h 00 m 00 s
 Mean elapsed time per time step in seconds =    1.9999980926513673E-003
 Time steps remaining =         7995
 Estimated remaining time in seconds =    15.989984750747681
 Estimated remaining time in hh:mm:ss =      0 h 00 m 15 s
 Estimated total run time in seconds =    15.999984741210938
 Estimated total run time in hh:mm:ss =      0 h 00 m 15 s
 The run will finish approximately on: Mon Jun 30, 2025 16:59

 Creating color image of size          826  x         1734  for time step            5
 drawing scalar image of the forward wavefield displacement...
 Color image maximum amplitude =    2.1101612901475164E-008
 Color image created


 ******************************************************************
 Time step #     500 out of    8000
 ******************************************************************
 Time:   39.0357 s
 We have done    6.23827982     % of the total
 Max norm of vector field in solid (elastic) =    1.02120917E-03
 Max absolute value of scalar field in fluid (acoustic) =    7.63666147E-21
 Elapsed time in seconds =   0.75800013542175293
 Elapsed time in hh:mm:ss =      0 h 00 m 00 s
 Mean elapsed time per time step in seconds =    1.5160002708435058E-003
 Time steps remaining =         7500
 Estimated remaining time in seconds =    11.370002031326294
 Estimated remaining time in hh:mm:ss =      0 h 00 m 11 s
 Estimated total run time in seconds =    12.128002166748047
 Estimated total run time in hh:mm:ss =      0 h 00 m 12 s
 The run will finish approximately on: Mon Jun 30, 2025 16:59

 Creating color image of size          826  x         1734  for time step          500
 drawing scalar image of the forward wavefield displacement...
 Color image maximum amplitude =    9.9909445270895958E-004
 Color image created


 ******************************************************************
 Time step #    1000 out of    8000
 ******************************************************************
 Time:  164.0357 s
 We have done    12.4890614     % of the total
 Max norm of vector field in solid (elastic) =    2.68345648E-05
 Max absolute value of scalar field in fluid (acoustic) =    3.77746765E-03
 Elapsed time in seconds =    1.5080001354217529
 Elapsed time in hh:mm:ss =      0 h 00 m 01 s
 Mean elapsed time per time step in seconds =    1.5080001354217530E-003
 Time steps remaining =         7000
 Estimated remaining time in seconds =    10.556000947952271
 Estimated remaining time in hh:mm:ss =      0 h 00 m 10 s
 Estimated total run time in seconds =    12.064001083374023
 Estimated total run time in hh:mm:ss =      0 h 00 m 12 s
 The run will finish approximately on: Mon Jun 30, 2025 16:59


 Total number of time steps done:         1000
 Writing the seismograms by main proc alone took    5.03299991E-03  seconds

 Creating color image of size          826  x         1734  for time step         1000
 drawing scalar image of the forward wavefield displacement...
 Color image maximum amplitude =    2.3045717171044089E-005
 Color image created


 ******************************************************************
 Time step #    1500 out of    8000
 ******************************************************************
 Time:  289.0357 s
 We have done    18.7398434     % of the total
 Max norm of vector field in solid (elastic) =    1.62978668E-05
 Max absolute value of scalar field in fluid (acoustic) =   0.439403445
 Elapsed time in seconds =    2.2640001773834229
 Elapsed time in hh:mm:ss =      0 h 00 m 02 s
 Mean elapsed time per time step in seconds =    1.5093334515889486E-003
 Time steps remaining =         6500
 Estimated remaining time in seconds =    9.8106674353281651
 Estimated remaining time in hh:mm:ss =      0 h 00 m 09 s
 Estimated total run time in seconds =    12.074667612711588
 Estimated total run time in hh:mm:ss =      0 h 00 m 12 s
 The run will finish approximately on: Mon Jun 30, 2025 16:59

 Creating color image of size          826  x         1734  for time step         1500
 drawing scalar image of the forward wavefield displacement...
 Color image maximum amplitude =    1.5239146705425810E-005
 Color image created


 ******************************************************************
 Time step #    2000 out of    8000
 ******************************************************************
 Time:  414.0357 s
 We have done    24.9906235     % of the total
 Max norm of vector field in solid (elastic) =    1.10966366E-05
 Max absolute value of scalar field in fluid (acoustic) =   0.379429311
 Elapsed time in seconds =    3.0170001983642578
 Elapsed time in hh:mm:ss =      0 h 00 m 03 s
 Mean elapsed time per time step in seconds =    1.5085000991821289E-003
 Time steps remaining =         6000
 Estimated remaining time in seconds =    9.0510005950927734
 Estimated remaining time in hh:mm:ss =      0 h 00 m 09 s
 Estimated total run time in seconds =    12.068000793457031
 Estimated total run time in hh:mm:ss =      0 h 00 m 12 s
 The run will finish approximately on: Mon Jun 30, 2025 16:59


 Total number of time steps done:         2000
 Writing the seismograms by main proc alone took    4.85499995E-03  seconds

 Creating color image of size          826  x         1734  for time step         2000
 drawing scalar image of the forward wavefield displacement...
 Color image maximum amplitude =    1.0778971955005545E-005
 Color image created


 ******************************************************************
 Time step #    2500 out of    8000
 ******************************************************************
 Time:  539.0357 s
 We have done    31.2414055     % of the total
 Max norm of vector field in solid (elastic) =    1.24350281E-05
 Max absolute value of scalar field in fluid (acoustic) =   0.406434566
 Elapsed time in seconds =    3.7760000228881836
 Elapsed time in hh:mm:ss =      0 h 00 m 03 s
 Mean elapsed time per time step in seconds =    1.5104000091552734E-003
 Time steps remaining =         5500
 Estimated remaining time in seconds =    8.3072000503540036
 Estimated remaining time in hh:mm:ss =      0 h 00 m 08 s
 Estimated total run time in seconds =    12.083200073242187
 Estimated total run time in hh:mm:ss =      0 h 00 m 12 s
 The run will finish approximately on: Mon Jun 30, 2025 16:59

 Creating color image of size          826  x         1734  for time step         2500
 drawing scalar image of the forward wavefield displacement...
 Color image maximum amplitude =    1.1374503628758248E-005
 Color image created


 ******************************************************************
 Time step #    3000 out of    8000
 ******************************************************************
 Time:  664.0357 s
 We have done    37.4921875     % of the total
 Max norm of vector field in solid (elastic) =    8.67385097E-06
 Max absolute value of scalar field in fluid (acoustic) =   0.555526376
 Elapsed time in seconds =    4.5340001583099365
 Elapsed time in hh:mm:ss =      0 h 00 m 04 s
 Mean elapsed time per time step in seconds =    1.5113333861033122E-003
 Time steps remaining =         5000
 Estimated remaining time in seconds =    7.5566669305165606
 Estimated remaining time in hh:mm:ss =      0 h 00 m 07 s
 Estimated total run time in seconds =    12.090667088826496
 Estimated total run time in hh:mm:ss =      0 h 00 m 12 s
 The run will finish approximately on: Mon Jun 30, 2025 16:59


 Total number of time steps done:         3000
 Writing the seismograms by main proc alone took    5.71799977E-03  seconds

 Creating color image of size          826  x         1734  for time step         3000
 drawing scalar image of the forward wavefield displacement...
 Color image maximum amplitude =    7.8257216955535114E-006
 Color image created


 ******************************************************************
 Time step #    3500 out of    8000
 ******************************************************************
 Time:  789.0357 s
 We have done    43.7429695     % of the total
 Max norm of vector field in solid (elastic) =    8.16044667E-06
 Max absolute value of scalar field in fluid (acoustic) =   0.270165473
 Elapsed time in seconds =    5.2960000038146973
 Elapsed time in hh:mm:ss =      0 h 00 m 05 s
 Mean elapsed time per time step in seconds =    1.5131428582327707E-003
 Time steps remaining =         4500
 Estimated remaining time in seconds =    6.8091428620474685
 Estimated remaining time in hh:mm:ss =      0 h 00 m 06 s
 Estimated total run time in seconds =    12.105142865862167
 Estimated total run time in hh:mm:ss =      0 h 00 m 12 s
 The run will finish approximately on: Mon Jun 30, 2025 16:59

 Creating color image of size          826  x         1734  for time step         3500
 drawing scalar image of the forward wavefield displacement...
 Color image maximum amplitude =    6.5871922743099276E-006
 Color image created


 ******************************************************************
 Time step #    4000 out of    8000
 ******************************************************************
 Time:  914.0357 s
 We have done    49.9937477     % of the total
 Max norm of vector field in solid (elastic) =    7.27488350E-06
 Max absolute value of scalar field in fluid (acoustic) =   0.193844631
 Elapsed time in seconds =    6.0500001907348633
 Elapsed time in hh:mm:ss =      0 h 00 m 06 s
 Mean elapsed time per time step in seconds =    1.5125000476837159E-003
 Time steps remaining =         4000
 Estimated remaining time in seconds =    6.0500001907348633
 Estimated remaining time in hh:mm:ss =      0 h 00 m 06 s
 Estimated total run time in seconds =    12.100000381469727
 Estimated total run time in hh:mm:ss =      0 h 00 m 12 s
 The run will finish approximately on: Mon Jun 30, 2025 16:59


 Total number of time steps done:         4000
 Writing the seismograms by main proc alone took    5.32099977E-03  seconds

 Creating color image of size          826  x         1734  for time step         4000
 drawing scalar image of the forward wavefield displacement...
 Color image maximum amplitude =    5.9916615100519266E-006
 Color image created


 ******************************************************************
 Time step #    4500 out of    8000
 ******************************************************************
 Time:  1.039036E+03 s
 We have done    56.2445297     % of the total
 Max norm of vector field in solid (elastic) =    7.86050714E-06
 Max absolute value of scalar field in fluid (acoustic) =   0.199296311
 Elapsed time in seconds =    6.8150000572204590
 Elapsed time in hh:mm:ss =      0 h 00 m 06 s
 Mean elapsed time per time step in seconds =    1.5144444571601021E-003
 Time steps remaining =         3500
 Estimated remaining time in seconds =    5.3005556000603571
 Estimated remaining time in hh:mm:ss =      0 h 00 m 05 s
 Estimated total run time in seconds =    12.115555657280815
 Estimated total run time in hh:mm:ss =      0 h 00 m 12 s
 The run will finish approximately on: Mon Jun 30, 2025 16:59

 Creating color image of size          826  x         1734  for time step         4500
 drawing scalar image of the forward wavefield displacement...
 Color image maximum amplitude =    6.2856665863364469E-006
 Color image created


 ******************************************************************
 Time step #    5000 out of    8000
 ******************************************************************
 Time:  1.164036E+03 s
 We have done    62.4953117     % of the total
 Max norm of vector field in solid (elastic) =    6.85511714E-06
 Max absolute value of scalar field in fluid (acoustic) =   0.236711740
 Elapsed time in seconds =    7.5730001926422119
 Elapsed time in hh:mm:ss =      0 h 00 m 07 s
 Mean elapsed time per time step in seconds =    1.5146000385284424E-003
 Time steps remaining =         3000
 Estimated remaining time in seconds =    4.5438001155853271
 Estimated remaining time in hh:mm:ss =      0 h 00 m 04 s
 Estimated total run time in seconds =    12.116800308227539
 Estimated total run time in hh:mm:ss =      0 h 00 m 12 s
 The run will finish approximately on: Mon Jun 30, 2025 16:59


 Total number of time steps done:         5000
 Writing the seismograms by main proc alone took    5.37100015E-03  seconds

 Creating color image of size          826  x         1734  for time step         5000
 drawing scalar image of the forward wavefield displacement...
 Color image maximum amplitude =    5.2040700211364310E-006
 Color image created


 ******************************************************************
 Time step #    5500 out of    8000
 ******************************************************************
 Time:  1.289036E+03 s
 We have done    68.7460938     % of the total
 Max norm of vector field in solid (elastic) =    6.94720165E-06
 Max absolute value of scalar field in fluid (acoustic) =   0.194821060
 Elapsed time in seconds =    8.3360002040863037
 Elapsed time in hh:mm:ss =      0 h 00 m 08 s
 Mean elapsed time per time step in seconds =    1.5156364007429643E-003
 Time steps remaining =         2500
 Estimated remaining time in seconds =    3.7890910018574107
 Estimated remaining time in hh:mm:ss =      0 h 00 m 03 s
 Estimated total run time in seconds =    12.125091205943715
 Estimated total run time in hh:mm:ss =      0 h 00 m 12 s
 The run will finish approximately on: Mon Jun 30, 2025 16:59

 Creating color image of size          826  x         1734  for time step         5500
 drawing scalar image of the forward wavefield displacement...
 Color image maximum amplitude =    3.7942299968563020E-006
 Color image created


 ******************************************************************
 Time step #    6000 out of    8000
 ******************************************************************
 Time:  1.414036E+03 s
 We have done    74.9968719     % of the total
 Max norm of vector field in solid (elastic) =    6.44418606E-06
 Max absolute value of scalar field in fluid (acoustic) =   0.818762898
 Elapsed time in seconds =    9.0980000495910645
 Elapsed time in hh:mm:ss =      0 h 00 m 09 s
 Mean elapsed time per time step in seconds =    1.5163333415985107E-003
 Time steps remaining =         2000
 Estimated remaining time in seconds =    3.0326666831970215
 Estimated remaining time in hh:mm:ss =      0 h 00 m 03 s
 Estimated total run time in seconds =    12.130666732788086
 Estimated total run time in hh:mm:ss =      0 h 00 m 12 s
 The run will finish approximately on: Mon Jun 30, 2025 16:59


 Total number of time steps done:         6000
 Writing the seismograms by main proc alone took    5.35700005E-03  seconds

 Creating color image of size          826  x         1734  for time step         6000
 drawing scalar image of the forward wavefield displacement...
 Color image maximum amplitude =    3.7241156860545743E-006
 Color image created


 ******************************************************************
 Time step #    6500 out of    8000
 ******************************************************************
 Time:  1.539036E+03 s
 We have done    81.2476578     % of the total
 Max norm of vector field in solid (elastic) =    6.28008092E-06
 Max absolute value of scalar field in fluid (acoustic) =   0.613630652
 Elapsed time in seconds =    9.8610000610351562
 Elapsed time in hh:mm:ss =      0 h 00 m 09 s
 Mean elapsed time per time step in seconds =    1.5170769324669472E-003
 Time steps remaining =         1500
 Estimated remaining time in seconds =    2.2756153987004208
 Estimated remaining time in hh:mm:ss =      0 h 00 m 02 s
 Estimated total run time in seconds =    12.136615459735577
 Estimated total run time in hh:mm:ss =      0 h 00 m 12 s
 The run will finish approximately on: Mon Jun 30, 2025 16:59

 Creating color image of size          826  x         1734  for time step         6500
 drawing scalar image of the forward wavefield displacement...
 Color image maximum amplitude =    3.4916452023026068E-006
 Color image created


 ******************************************************************
 Time step #    7000 out of    8000
 ******************************************************************
 Time:  1.664036E+03 s
 We have done    87.4984360     % of the total
 Max norm of vector field in solid (elastic) =    6.39299924E-06
 Max absolute value of scalar field in fluid (acoustic) =    1.67653489
 Elapsed time in seconds =    10.620000123977661
 Elapsed time in hh:mm:ss =      0 h 00 m 10 s
 Mean elapsed time per time step in seconds =    1.5171428748539516E-003
 Time steps remaining =         1000
 Estimated remaining time in seconds =    1.5171428748539517
 Estimated remaining time in hh:mm:ss =      0 h 00 m 01 s
 Estimated total run time in seconds =    12.137142998831614
 Estimated total run time in hh:mm:ss =      0 h 00 m 12 s
 The run will finish approximately on: Mon Jun 30, 2025 16:59


 Total number of time steps done:         7000
 Writing the seismograms by main proc alone took    5.19800000E-03  seconds

 Creating color image of size          826  x         1734  for time step         7000
 drawing scalar image of the forward wavefield displacement...
 Color image maximum amplitude =    3.2219697914115386E-006
 Color image created


 ******************************************************************
 Time step #    7500 out of    8000
 ******************************************************************
 Time:  1.789036E+03 s
 We have done    93.7492218     % of the total
 Max norm of vector field in solid (elastic) =    5.94736821E-06
 Max absolute value of scalar field in fluid (acoustic) =   0.707221568
 Elapsed time in seconds =    11.381000041961670
 Elapsed time in hh:mm:ss =      0 h 00 m 11 s
 Mean elapsed time per time step in seconds =    1.5174666722615560E-003
 Time steps remaining =          500
 Estimated remaining time in seconds =   0.75873333613077798
 Estimated remaining time in hh:mm:ss =      0 h 00 m 00 s
 Estimated total run time in seconds =    12.139733378092448
 Estimated total run time in hh:mm:ss =      0 h 00 m 12 s
 The run will finish approximately on: Mon Jun 30, 2025 16:59

 Creating color image of size          826  x         1734  for time step         7500
 drawing scalar image of the forward wavefield displacement...
 Color image maximum amplitude =    2.8576048407558119E-006
 Color image created


 ******************************************************************
 Time step #    8000 out of    8000
 ******************************************************************
 Time:  1.914036E+03 s
 We have done    100.000000     % of the total
 Max norm of vector field in solid (elastic) =    6.14689816E-06
 Max absolute value of scalar field in fluid (acoustic) =    1.03222561
 Elapsed time in seconds =    12.140000104904175
 Elapsed time in hh:mm:ss =      0 h 00 m 12 s
 Mean elapsed time per time step in seconds =    1.5175000131130219E-003
 Time steps remaining =            0
 Estimated remaining time in seconds =    0.0000000000000000
 Estimated remaining time in hh:mm:ss =      0 h 00 m 00 s
 Estimated total run time in seconds =    12.140000104904175
 Estimated total run time in hh:mm:ss =      0 h 00 m 12 s


 Total number of time steps done:         8000
 Writing the seismograms by main proc alone took    5.28699998E-03  seconds

 Creating color image of size          826  x         1734  for time step         8000
 drawing scalar image of the forward wavefield displacement...
 Color image maximum amplitude =    2.7173421131010400E-006
 Color image created


 Time loop finished. Timing info:
 Total duration of the time loop in seconds  =    12.1766529      s
 Total duration of the time loop in hh:mm:ss =      0 h 00 m 12 s

 Total number of time steps =         8000
 Average duration of a time step of the time loop =    1.52208167E-03  s

 Total number of spectral elements in the mesh =        10368
     of which        10368  are regular elements
     and            0  are PML elements.
 Average duration of the calculation per spectral element =    1.46805718E-07  s


 Total duration of the timeloop measured using date and time of the system
     in seconds     =    12.1800003      s
     in in hh:mm:ss =      0 h 00 m 12 s



 -------------------------------------------------------------------------------
 -------------------------------------------------------------------------------
 Program SPECFEM2D:
 -------------------------------------------------------------------------------
 -------------------------------------------------------------------------------
 AK135F for half a disk for axisymmetric runs
 -------------------------------------------------------------------------------
 -------------------------------------------------------------------------------
 D a t e : 30 - 06 - 2025                                 T i m e  : 16:58:37
 -------------------------------------------------------------------------------
 -------------------------------------------------------------------------------

see results in directory: OUTPUT_FILES/

done
Mon Jun 30 16:58:37 CEST 2025
