running example: Tue Jul  1 11:18:01 CEST 2025

setting up example...

cleaning OUTPUT_FILES/

running mesher on 4 processors...


 **********************************************
 *** Specfem 2-D Mesher - MPI version       ***
 **********************************************

 Running Git version of the code corresponding to unknown
 dating unknown

 Reading the parameter file...

 Title of the simulation: poroelastic semi-infinite homogeneous

 Receiver lines:
   Nb of line sets =            1

 Parameter file successfully read


 Mesh from internal meshing:
   Materials:
   Nb of solid, fluid or porous materials =            1

 --------
 Material #           1  isotropic
 rho_s, kappa_s         =    2650.0000000000000        12200000000.000000
 rho_f, kappa_f, eta_f  =    880.00000000000000        1985000000.0000000        0.0000000000000000
 phi, tortuosity        =   0.10000000000000001        2.0000000000000000
 permxx, permxz, permzz =    1.0000000000000001E-009   0.0000000000000000        1.0000000000000001E-009
 kappa_fr, mu_fr, Qmu   =    9600000000.0000000        5100000000.0000000        9999999999.0000000
 Material is porous
 --------

 Reading interface data from file: ./DATA/./interfaces.dat
 Reading            2  points for interface            1
 Reading            2  points for interface            2

 Total number of layers in z direction =            1
 There are          200  spectral elements along Z in layer            1

 Total number of spectral elements along X =          200
 Total number of spectral elements along Z =          200

 Regions:
   Nb of regions in the mesh =            1

 ------
 Region            1
 IX from            1  to          200
 IZ from            1  to          200
 Material #            1  isotropic
 Material is poroelastic
 ------

 creating mesh from internal meshing:
   Total number of spectral elements         =        40000

 PML mesh elements:
   Total number of PML elements =            0

 The mesh contains        40000  elements

 Control elements have            9  nodes

 Reading in SOURCE file...

 Source           1
   Position xs, zs =    500.00000000000000        300.00000000000000

   Source type:            2
   (1=force, 2=moment tensor)

   Moment tensor source:
   Mxx of the source =    1.0000000000000000
   Mzz of the source =    1.0000000000000000
   Mxz of the source =    0.0000000000000000

   Time function type:           3
   ( 0=Normalized Gaussian,  1=Ricker,          2=First derivative,  3=Gaussian,        4=Dirac,
     5=Heaviside,            6=Ocean type I,    7=Ocean type II,     8=Read from file,  9=Burst,
    10=Sinusoidal,          11=Ormsby,         12=Brune,            13=Smoothed Brune, 14=Yoffe )
   Gaussian:
   Frequency, delay   =    30.000000000000000        0.0000000000000000
   Multiplying factor =   -10000000000.000000

 all sources are okay

 Normals to surface not needed

 Node coordinates:

 reading node coordinates from interfaces...

 Mesh surfaces:
   determining acoustic free surface...
   number of acoustic elements with free surface =            0

   determining absorbing boundary surfaces...
   number of elements with absorbing boundaries =          600


 Mesh dimensions:
   Min and max value of X in the grid =    0.0000000000000000        1000.0000000000000
   Min and max value of Z in the grid =    0.0000000000000000        1000.0000000000000

 checking mesh elements for invalid Jacobians...
   number of elements:        40000
   NGNOD             :            9
   AXISYM            :  F
   all elements have valid Jacobians

 Mesh partitioning:
   decomposing mesh using NPROC =            4

 Graph construction:
   graph adjacency done

 ************ Computing elements load ************
 Number of elastic elements :           0
 Number of acoustic elements :           0
 Number of viscoelastic elements :           0
 Number of viscoacoustic elements :           0
 Number of elastic PML elements :           0
 Number of acoustic PML elements :           0
 Number of viscoelastic PML elements :           0
 Number of viscoacoustic PML elements :           0
 *************************************************


 Partitioning type: SCOTCH

 Coupled interfaces:
 nedges_coupled (acoustic/elastic)     =            0
 nedges_coupled (acoustic/poroelastic) =            0
 nedges_coupled (poroelastic/elastic)  =            0

 Local numbering:
   NPROC:            4
   number of elements:        40000

 decompose mesh all done

 Absorbing boundaries:
   nedge_bound   :          600
   nelemabs_merge:          600

 Saving databases:
   database file: ./OUTPUT_FILES/Database00000.bin
   slice            0  has number of spectral elements =        9875

   database file: ./OUTPUT_FILES/Database00001.bin
   slice            1  has number of spectral elements =       10125

   database file: ./OUTPUT_FILES/Database00002.bin
   slice            2  has number of spectral elements =       10000

   database file: ./OUTPUT_FILES/Database00003.bin
   slice            3  has number of spectral elements =       10000

   VTK mesh files:
   written file: ./OUTPUT_FILES//mesh_materials.vtk
   written file: ./OUTPUT_FILES//mesh_partition_number.vtk
   done

 creating STATIONS file...

 writing the ./DATA/STATIONS file


 There are            1  receivers

 Target positions (x,z) of the            1  receivers

 Receiver            1  =    600.00000000000000        400.00000000000000

 This will be a parallel simulation on            4  processor cores


running solver on 4 processors...


 **********************************************
 **** Specfem 2-D Solver - MPI version     ****
 **********************************************

 Running Git version of the code corresponding to unknown
 dating unknown

 There are            4  MPI processes
 Processes are numbered from 0 to            3

 There is a total of            4  slices


 NDIM =            2

 NGLLX =            5
 NGLLZ =            5

 using single precision for the calculations

 smallest and largest possible floating-point numbers are:    1.17549435E-38   3.40282347E+38

 Reading the parameter file...

 Title of the simulation: poroelastic semi-infinite homogeneous

 Receiver lines:
   Nb of line sets =            1

 Parameter file successfully read

 Reading in SOURCE file...

 Source           1
   Position xs, zs =    500.00000000000000        300.00000000000000

   Source type:            2
   (1=force, 2=moment tensor)

   Moment tensor source:
   Mxx of the source =    1.0000000000000000
   Mzz of the source =    1.0000000000000000
   Mxz of the source =    0.0000000000000000

   Time function type:           3
   ( 0=Normalized Gaussian,  1=Ricker,          2=First derivative,  3=Gaussian,        4=Dirac,
     5=Heaviside,            6=Ocean type I,    7=Ocean type II,     8=Read from file,  9=Burst,
    10=Sinusoidal,          11=Ormsby,         12=Brune,            13=Smoothed Brune, 14=Yoffe )
   Gaussian:
   Frequency, delay   =    30.000000000000000        0.0000000000000000
   Multiplying factor =   -10000000000.000000

 all sources are okay



 -------------------------------------------------------------------------------
 -------------------------------------------------------------------------------
 Program SPECFEM2D:
 -------------------------------------------------------------------------------
 -------------------------------------------------------------------------------
 poroelastic semi-infinite homogeneous
 -------------------------------------------------------------------------------
 -------------------------------------------------------------------------------
 D a t e : 01 - 07 - 2025                                 T i m e  : 11:18:03
 -------------------------------------------------------------------------------
 -------------------------------------------------------------------------------


 C o n t r o l
 =============

     Number of spectral element control nodes. . .(npgeo) =  161644
     Number of space dimensions. . . . . . . . . . (NDIM) =       2


 C o n t r o l
 =============

     Display frequency . . . (NTSTEP_BETWEEN_OUTPUT_INFO) =    200
     Color display . . . . . . . . . . . . . . . (colors) =      1
      == 0     black and white display
      == 1     color display
     Numbered mesh . . . . . . . . . . . . . . .(numbers) =      0
      == 0     do not number the mesh
      == 1     number the mesh


 C o n t r o l
 =============

     Seismograms recording type . . . . . . .(seismotype) = 2
     Angle for first line of receivers. . . . .(anglerec) =   0.00


 C o n t r o l
 =============

     Read external initial field. . . . . .(initialfield) =      F
     Add Bielak conditions (add_Bielak_conditions_bottom) =      F
     Add Bielak conditions .(add_Bielak_conditions_right) =      F
     Add Bielak conditions . .(add_Bielak_conditions_top) =      F
     Add Bielak conditions. .(add_Bielak_conditions_left) =      F
     Attenuation in solid . . .(ATTENUATION_VISCOELASTIC) =      F
     Attenuation in fluid . . (ATTENUATION_VISCOACOUSTIC) =      F
     Save grid in ASCII file or not . (output_grid_ASCII) =      F
     Save a file with total energy or not.(OUTPUT_ENERGY) =      F


 C o n t r o l
 =============

     Vector display type . . . . . . . . .(imagetype_postscript) =      1
     Percentage of cut for vector plots. . . . . . . .(cutsnaps) =  10.00
     Subsampling of velocity model display. (subsamp_postscript) =      1


 I t e r a t i o n s
 ===================

     Number of time iterations . . . . .(NSTEP) =    2500
     Time step increment. . . . . . . . . .(DT) =   1.000000E-04
     Total simulation duration . . . . . (ttot) =   2.500000E-01


 reading mesh databases:
 reading nodal coordinates...

 -- Spectral Elements --


     Number of spectral elements . . . . . . . . .  (nspec) =  40000
     Number of control nodes per element . . . . . (NGNOD) =      9
     Number of points in X-direction . . . . . . . (NGLLX) =      5
     Number of points in Y-direction . . . . . . . (NGLLZ) =      5
     Number of points per element. . . . . . (NGLLX*NGLLZ) =     25
     Number of points for display . . . . . . (pointsdisp) =      6
     Number of element material sets . . . . . . . (numat) =      1
     Number of acoustic forcing elements (nelem_acforcing) =      0
     Number of acoustic free surf (nelem_acoustic_surface) =      0

 reading attenuation setup...
 reading material properties..


 M a t e r i a l   s e t s :   2 D  (p o r o) e l a s t i c i t y
 ======================================================

     Number of material sets . . . . . . (numat) =     1


     ----------------------------------------
     -- Poroelastic isotropic material --
     ----------------------------------------
     Material set number. . . . . . . . (jmat) =     1
     First P-wave velocity. . . . . . . .(cpI) = 2.63902976E+03
     Second P-wave velocity. . . . . . .(cpII) = 9.60957155E+02
     S-wave velocity. . . . . . . . . . . (cs) = 1.44900983E+03


     -------------------------------
     -- Solid phase properties --
     Mass density. . . . . . . . . . (density_s) = 2.65000000E+03
     Poisson's ratio . . . . . . . . (poisson_s) = 3.16546763E-01
     First Lame parameter Lambda. . . (lambda_s) = 8.80000000E+09
     Second Lame parameter Mu. . . . . . .(mu_s) = 5.10000000E+09
     Solid bulk modulus Kappa . . . . .(kappa_s) = 1.22000000E+10
     Young's modulus E . . . . . . .  .(young_s) = 1.34287770E+10


     -------------------------------
     -- Fluid phase properties --
     Mass density. . . . . . . . . . (density_f) = 8.80000000E+02
     Fluid bulk modulus Kappa . . . . .(kappa_f) = 1.98500000E+09
     Fluid viscosity Eta . . . . . . . . (eta_f) = 0.00000000E+00


     -------------------------------
     -- Frame properties --
     First Lame parameter Lambda. . . (lambda_fr) = 6.20000000E+09
     Second Lame parameter Mu. . . . . . .(mu_fr) = 5.10000000E+09
     Frame bulk modulus Kappa . . . . .(kappa_fr) = 9.60000000E+09
     Porosity. . . . . . . . . . . . . . . .(phi) = 1.00000000E-01
     Tortuosity. . . . . . . . . . . . . . . .(c) = 2.00000000E+00
     Permeability xx component. . . . . . . . . . = 1.00000000E-09
     Permeability zx component. . . . . . . . . . = 0.00000000E+00
     Permeability zz component. . . . . . . . . . = 1.00000000E-09
     Qmu_attenuation. . . . . . . . . . . . (Qmu) = 1.00000000E+10


     -------------------------------
     -- Biot coefficients --
     -------------------------------
     D. . . . . . . . . .= 1.84782368E+10
     H. . . . . . . . . .= 1.71614124E+10
     C. . . . . . . . . .= 3.57278149E+09
     M. . . . . . . . . .= 1.67645901E+10
     Characteristic freq = 0.00000000E+00

 reading interfaces informations...
   number of interfaces         =            2

 reading absorbing boundary...
   Total number of absorbing elements =          600

   any absorbing boundary flag        =  T
   PML boundary flag                  =  F
   Stacey boundary flag               =  T


 Absorbing boundaries:
   using Stacey absorbing boundary conditions

   Total number of absorbing elements:          600
     nspec_left   =          200
     nspec_right  =          200
     nspec_bottom =          200
     nspec_top    =            0


 reading acoustic forcing...
   acoustic forcing                             =  F
   number of acoustic forcing boundary elements =            0

 reading free surface information...
   number of acoustic free surface boundary elements =            0

 reading coupling surfaces...
   number of fluid-solid edges  =            0
   number of fluid-poro  edges  =            0
   number of solid-poro  edges  =            0

 reading tangential curves...
   number of tangential curve nodes =            0

 reading axial elements...
   number of axial elements     =            0

 done reading mesh databases


 Setting up mesh

 Generating global mesh numbering (fast version)...

 Mesh numbering:
   Total number of elements:        40000

   Total number of acoustic elements           =            0
   Total number of elastic/visco/poro elements =        40000

 Approximate total number of grid points in the mesh
 (with a few duplicates coming from MPI buffers):       643284

 Approximate number of acoustic degrees of freedom in the mesh:            0
 Approximate number of elastic degrees of freedom in the mesh:      1286568
   (there are 2 degrees of freedom per point for elastic elements)

 Approximate total number of degrees of freedom in the mesh
 (sum of the two values above):      1286568

  (for simplicity viscoelastic or poroelastic elements, if any,
   are counted as elastic in the above three estimates;
   in reality they have more degrees of freedom)

 Mesh dimensions:
   Xmin,Xmax of the whole mesh =    0.0000000000000000        1000.0000000000001
   Zmin,Zmax of the whole mesh =    0.0000000000000000        1000.0000000000001

 Material properties:
   MODEL                   : default
   nspec                   :        40000
   external velocity model :  F

   setting up material arrays
   poroelasticity:
     vpII: min/max =    960.957153     /   960.957153
     phi : min/max =   0.100000001     /  0.100000001

   all material arrays done

   written file: ./OUTPUT_FILES/mesh00000_vpII.vtk
   written file: ./OUTPUT_FILES/mesh00000_phi.vtk

 Domains:
   total number of acoustic elements        =            0
   total number of elastic elements         =            0
   total number of poroelastic elements     =        40000
   total number of electromagnetic elements =            0

 Setting up MPI communication arrays

   maximum number of MPI interfaces (for a single slice) =            3

   total MPI interface points:         3370

   main process:
   number of MPI interfaces in acoustic domain    =            0
   number of MPI interfaces in elastic domain     =            0
   number of MPI interfaces in poroelastic domain =            2
   number of MPI interfaces in electromagnetic domain =            0

   number of outer elements  =          209
   number of inner elements  =         9666

   percentage of outer elements    2.11645508     %
   percentage of inner elements    97.8835449     %

   number of global nodes in outer elements  =         4185
   number of global nodes in inner elements  =       155489

   determining communication phases:
   poroelastic domains:
   total number of outer/inner elements =          836       39164
   total percentage of outer elements    2.08999634     %
   total percentage of inner elements    97.9100037     %

 All mesh setup done successfully

 Sources
 =======

   Total number of sources:            1

   Setting parameters for source           1

     Source Type. . . . . . . . . . . . . . = Moment-tensor
     X-position (meters). . . . . . . . . . =    5.0000000000E+02
     Y-position (meters). . . . . . . . . . =    3.0000000000E+02
     Fundamental frequency (Hz) . . . . . . =    3.0000000000E+01
     Time delay (s) . . . . . . . . . . . . =    0.0000000000E+00
     Multiplying factor . . . . . . . . . . =   -1.0000000000E+10
     Mxx. . . . . . . . . . . . . . . . . . =    1.0000000000E+00
     Mzz. . . . . . . . . . . . . . . . . . =    1.0000000000E+00
     Mxz. . . . . . . . . . . . . . . . . . =    0.0000000000E+00

     Source time function
     Gaussian

     2D seismic moment M0 =    10000000.0     (dyne-cm)
         moment magnitude =   -6.03333330

 determining source onset times...
   simulation start time t0 =   -4.0000000000000001E-002  s

   Source:            1
     Onset time. . . . . . =   -4.0000000000000001E-002
     Fundamental period. . =    3.3333333333333333E-002
     Fundamental frequency =    30.000000000000000
     The onset time is ok

 Source:            1
 *******************************
  locating moment-tensor source
 *******************************

 Moment-tensor source:
             original x:    500.000000
             original z:    300.000000
 Closest estimate found:    0.00000000      m away
  in rank            2
  in element         6000
  in poroelastic domain
  at xi,gamma coordinates =    1.0000000000000000        1.0000000000000000


 end of moment-tensor source detection


 receivers:

 Total number of receivers =            1


 ********************
  locating receivers
 ********************

 reading receiver information from the ./DATA/STATIONS file


 Station #            1     AA      S0001
             original x:    600.000000
             original z:    400.000000
 Closest estimate found:    0.00000000      m away
  in rank            3
  in element         7920
  in poroelastic domain
  at xi,gamma coordinates =    1.0000000000000000        1.0000000000000000
 Distance from source:    141.421356      m

 maximum error in location of all the receivers:    0.00000000      m

 end of receiver detection

 found a total of            1  receivers, this is okay


 Preparing timerun:

 Movie simulation:
   color images         - JPEG image type:            2
   number of steps between outputs       :          500

 Preparing image coloring: jpeg
   allocating color image arrays
   locating all the pixels of color images
   total number of image pixels =      2590490
   done locating all the pixels of color images
   coloring image background based on velocity

 Checking mesh and stability

 ********
 Model: P (or PI) velocity min,max =    2639.0298113207546        2639.0298113207546
 Model: PII velocity min,max       =    960.95715332031250        960.95715332031250
 Model: S velocity min,max         =    1449.0098344653697        1449.0098344653697
 Model: density min,max            =    2650.0000000000000        2650.0000000000000
 ********


 *********************************************
 *** Verification of simulation parameters ***
 *********************************************

 *** Max grid size =    5.0000000000000000
 *** Min grid size =    5.0000000000000000
 *** Max/min ratio =    1.0000000000000000

 *** Minimum GLL point distance  =   0.86336582323005695
 *** Average GLL point distance  =    1.2500000000000000

 *** Minimum period resolved     =    4.3132902561051388E-003
 *** Maximum frequency resolved  =    231.84157351445918      Hz

 *** Maximum suggested time step                 =    1.6357636801343455E-004
 *** Maximum suggested (Ricker) source frequency =    92.736629405783674

 *** for DT :    9.99999975E-05
 *** Max CFL stability condition of the time scheme based on P wave velocity (must be below about 0.50 or so) =   0.30566762550867671

 ----
 Number of points per wavelength:
 ----
   Source            1
   maximum dominant source frequency =    75.000000000000000      Hz


   Nb pts / lambdaPI_fmax min =    28.1496506
   Nb pts / lambdaPI_fmax max =    28.1496506

   Nb pts / lambdaPII_fmax min =    10.2502098
   Nb pts / lambdaPII_fmax max =    10.2502098

   Nb pts / lambdaS_fmax min =    15.4561052
   Nb pts / lambdaS_fmax max =    15.4561052

 -----------------------------------------

 histogram of min number of points per S wavelength in solid regions:

 there are        40000  elements out of        40000  in solid regions
   (i.e.,    100.000000     % of the total)

 (too small = poor resolution of calculations -
  too big = wasting memory and CPU time)
 (threshold value is around 4.5 points per S wavelength
  in elastic regions and 5.5 per P wavelength in fluid regions):

   15.3015442      -    15.3170004               0     0.00000000      %
   15.3170004      -    15.3324556               0     0.00000000      %
   15.3324556      -    15.3479118               0     0.00000000      %
   15.3479118      -    15.3633680               0     0.00000000      %
   15.3633680      -    15.3788242               0     0.00000000      %
   15.3788242      -    15.3942804               0     0.00000000      %
   15.3942804      -    15.4097366               0     0.00000000      %
   15.4097366      -    15.4251928               0     0.00000000      %
   15.4251928      -    15.4406490               0     0.00000000      %
   15.4406490      -    15.4561052               0     0.00000000      %
   15.4561052      -    15.4715614           40000     100.000000      %
   15.4715614      -    15.4870167               0     0.00000000      %
   15.4870167      -    15.5024729               0     0.00000000      %
   15.5024729      -    15.5179291               0     0.00000000      %
   15.5179291      -    15.5333853               0     0.00000000      %
   15.5333853      -    15.5488415               0     0.00000000      %
   15.5488415      -    15.5642977               0     0.00000000      %
   15.5642977      -    15.5797539               0     0.00000000      %
   15.5797539      -    15.5952101               0     0.00000000      %
   15.5952101      -    15.6106663               0     0.00000000      %

 total percentage =    100.00000000000000       %


 total number of elements in fluid and solid regions =        40000

 mesh resolution output files:
   written file: ./OUTPUT_FILES/mesh00000_res_minimum_period.vtk
   written file: ./OUTPUT_FILES/mesh00000_res_dt_suggested.vtk

 Preparing timerun constants

 Preparing array allocations
   arrays for poroelastic domains
   done initialization


 Preparing Stacey boundaries
   total number of absorbing boundary faces/edges:          600
 Attenuation:
   viscoelastic  attenuation:  F (shear & bulk attenuation in elastic domains)
   viscoacoustic attenuation:  F (bulk attenuation in acoustic domains)
   poro-fluid    attenuation:  F (viscous attenuation in poroelastic domains)
   permittivity  attenuation:  F (for electromagnetic materials)

 Preparing mass matrices
   initializing mass matrices
   adding Stacey contributions to mass matrix
   inverting mass matrices


 Preparing source time function
   time stepping scheme:   Newmark
   time stepping stages:            1
   time step size      :    9.99999975E-05

   number of time steps:         2500
   number of sources   :            1

   saving the source time function in a text file...

 preparing optimized arrays
   fused array done

 Elapsed time for preparing timerun in seconds =   0.23477300000000001

 ************
  time loop
 ************
               scheme:         Newmark

            time step:    9.99999975E-05  s
 number of time steps:         2500
 total simulated time:   0.250000000      seconds
 start time:  -3.99999991E-02  seconds


 =========================================
 =  T i m e  e v o l u t i o n  l o o p  =
 =========================================


 Starting time iteration loop ...


 ******************************************************************
 Time step #       5 out of    2500
 ******************************************************************
 Time: -3.960000E-02 s
 We have done   0.160064027     % of the total
 Max norm of vector field in solid (poroelastic) =    5.85419213E-11
 Max norm of vector field in fluid (poroelastic) =    1.07419212E-11
 Elapsed time in seconds =    8.3999872207641602E-002
 Elapsed time in hh:mm:ss =      0 h 00 m 00 s
 Mean elapsed time per time step in seconds =    1.6799974441528320E-002
 Time steps remaining =         2495
 Estimated remaining time in seconds =    41.915936231613159
 Estimated remaining time in hh:mm:ss =      0 h 00 m 41 s
 Estimated total run time in seconds =    41.999936103820801
 Estimated total run time in hh:mm:ss =      0 h 00 m 41 s
 The run will finish approximately on: Tue Jul 01, 2025 11:19

 Creating color image of size         1610  x         1690  for time step            5
 drawing scalar image of the forward wavefield displacement...
 Color image maximum amplitude =    4.2341047334915061E-011
 Color image created


 ******************************************************************
 Time step #     200 out of    2500
 ******************************************************************
 Time: -2.010000E-02 s
 We have done    7.96318531     % of the total
 Max norm of vector field in solid (poroelastic) =    9.28500299E-07
 Max norm of vector field in fluid (poroelastic) =    1.38497921E-06
 Elapsed time in seconds =    4.0729999542236328
 Elapsed time in hh:mm:ss =      0 h 00 m 04 s
 Mean elapsed time per time step in seconds =    2.0364999771118164E-002
 Time steps remaining =         2300
 Estimated remaining time in seconds =    46.839499473571777
 Estimated remaining time in hh:mm:ss =      0 h 00 m 46 s
 Estimated total run time in seconds =    50.912499427795410
 Estimated total run time in hh:mm:ss =      0 h 00 m 50 s
 The run will finish approximately on: Tue Jul 01, 2025 11:19


 ******************************************************************
 Time step #     400 out of    2500
 ******************************************************************
 Time: -1.000000E-04 s
 We have done    15.9663868     % of the total
 Max norm of vector field in solid (poroelastic) =    3.46976740E-05
 Max norm of vector field in fluid (poroelastic) =    5.48414246E-05
 Elapsed time in seconds =    8.0979998111724854
 Elapsed time in hh:mm:ss =      0 h 00 m 08 s
 Mean elapsed time per time step in seconds =    2.0244999527931212E-002
 Time steps remaining =         2100
 Estimated remaining time in seconds =    42.514499008655548
 Estimated remaining time in hh:mm:ss =      0 h 00 m 42 s
 Estimated total run time in seconds =    50.612498819828033
 Estimated total run time in hh:mm:ss =      0 h 00 m 50 s
 The run will finish approximately on: Tue Jul 01, 2025 11:19

 Creating color image of size         1610  x         1690  for time step          500
 drawing scalar image of the forward wavefield displacement...
 Color image maximum amplitude =    1.0285601092618890E-005
 Color image created


 ******************************************************************
 Time step #     600 out of    2500
 ******************************************************************
 Time:    0.0199 s
 We have done    23.9695873     % of the total
 Max norm of vector field in solid (poroelastic) =    1.07048174E-06
 Max norm of vector field in fluid (poroelastic) =    7.76378511E-06
 Elapsed time in seconds =    12.148000001907349
 Elapsed time in hh:mm:ss =      0 h 00 m 12 s
 Mean elapsed time per time step in seconds =    2.0246666669845582E-002
 Time steps remaining =         1900
 Estimated remaining time in seconds =    38.468666672706604
 Estimated remaining time in hh:mm:ss =      0 h 00 m 38 s
 Estimated total run time in seconds =    50.616666674613953
 Estimated total run time in hh:mm:ss =      0 h 00 m 50 s
 The run will finish approximately on: Tue Jul 01, 2025 11:19


 ******************************************************************
 Time step #     800 out of    2500
 ******************************************************************
 Time:    0.0399 s
 We have done    31.9727898     % of the total
 Max norm of vector field in solid (poroelastic) =    1.09476119E-07
 Max norm of vector field in fluid (poroelastic) =    7.29693193E-06
 Elapsed time in seconds =    16.165999889373779
 Elapsed time in hh:mm:ss =      0 h 00 m 16 s
 Mean elapsed time per time step in seconds =    2.0207499861717226E-002
 Time steps remaining =         1700
 Estimated remaining time in seconds =    34.352749764919281
 Estimated remaining time in hh:mm:ss =      0 h 00 m 34 s
 Estimated total run time in seconds =    50.518749654293060
 Estimated total run time in hh:mm:ss =      0 h 00 m 50 s
 The run will finish approximately on: Tue Jul 01, 2025 11:19


 ******************************************************************
 Time step #    1000 out of    2500
 ******************************************************************
 Time:    0.0599 s
 We have done    39.9759903     % of the total
 Max norm of vector field in solid (poroelastic) =    8.85822189E-08
 Max norm of vector field in fluid (poroelastic) =    6.83028520E-06
 Elapsed time in seconds =    20.178999900817871
 Elapsed time in hh:mm:ss =      0 h 00 m 20 s
 Mean elapsed time per time step in seconds =    2.0178999900817871E-002
 Time steps remaining =         1500
 Estimated remaining time in seconds =    30.268499851226807
 Estimated remaining time in hh:mm:ss =      0 h 00 m 30 s
 Estimated total run time in seconds =    50.447499752044678
 Estimated total run time in hh:mm:ss =      0 h 00 m 50 s
 The run will finish approximately on: Tue Jul 01, 2025 11:19


 Total number of time steps done:         1000
 Writing the seismograms by main proc alone took    3.87299992E-03  seconds

 Creating color image of size         1610  x         1690  for time step         1000
 drawing scalar image of the forward wavefield displacement...
 Color image maximum amplitude =    8.8504499728969677E-008
 Color image created


 ******************************************************************
 Time step #    1200 out of    2500
 ******************************************************************
 Time:    0.0799 s
 We have done    47.9791908     % of the total
 Max norm of vector field in solid (poroelastic) =    7.63715207E-08
 Max norm of vector field in fluid (poroelastic) =    6.33902982E-06
 Elapsed time in seconds =    24.245999813079834
 Elapsed time in hh:mm:ss =      0 h 00 m 24 s
 Mean elapsed time per time step in seconds =    2.0204999844233195E-002
 Time steps remaining =         1300
 Estimated remaining time in seconds =    26.266499797503155
 Estimated remaining time in hh:mm:ss =      0 h 00 m 26 s
 Estimated total run time in seconds =    50.512499610582992
 Estimated total run time in hh:mm:ss =      0 h 00 m 50 s
 The run will finish approximately on: Tue Jul 01, 2025 11:19


 ******************************************************************
 Time step #    1400 out of    2500
 ******************************************************************
 Time:    0.0999 s
 We have done    55.9823914     % of the total
 Max norm of vector field in solid (poroelastic) =    6.81297792E-08
 Max norm of vector field in fluid (poroelastic) =    5.87871682E-06
 Elapsed time in seconds =    28.276000022888184
 Elapsed time in hh:mm:ss =      0 h 00 m 28 s
 Mean elapsed time per time step in seconds =    2.0197142873491558E-002
 Time steps remaining =         1100
 Estimated remaining time in seconds =    22.216857160840714
 Estimated remaining time in hh:mm:ss =      0 h 00 m 22 s
 Estimated total run time in seconds =    50.492857183728901
 Estimated total run time in hh:mm:ss =      0 h 00 m 50 s
 The run will finish approximately on: Tue Jul 01, 2025 11:19

 Creating color image of size         1610  x         1690  for time step         1500
 drawing scalar image of the forward wavefield displacement...
 Color image maximum amplitude =    6.5240080004969059E-008
 Color image created


 ******************************************************************
 Time step #    1600 out of    2500
 ******************************************************************
 Time:    0.1199 s
 We have done    63.9855957     % of the total
 Max norm of vector field in solid (poroelastic) =    6.22907308E-08
 Max norm of vector field in fluid (poroelastic) =    5.52238998E-06
 Elapsed time in seconds =    32.371999979019165
 Elapsed time in hh:mm:ss =      0 h 00 m 32 s
 Mean elapsed time per time step in seconds =    2.0232499986886979E-002
 Time steps remaining =          900
 Estimated remaining time in seconds =    18.209249988198280
 Estimated remaining time in hh:mm:ss =      0 h 00 m 18 s
 Estimated total run time in seconds =    50.581249967217445
 Estimated total run time in hh:mm:ss =      0 h 00 m 50 s
 The run will finish approximately on: Tue Jul 01, 2025 11:19


 ******************************************************************
 Time step #    1800 out of    2500
 ******************************************************************
 Time:    0.1399 s
 We have done    71.9887924     % of the total
 Max norm of vector field in solid (poroelastic) =    5.74070107E-08
 Max norm of vector field in fluid (poroelastic) =    5.19283412E-06
 Elapsed time in seconds =    36.414999961853027
 Elapsed time in hh:mm:ss =      0 h 00 m 36 s
 Mean elapsed time per time step in seconds =    2.0230555534362794E-002
 Time steps remaining =          700
 Estimated remaining time in seconds =    14.161388874053957
 Estimated remaining time in hh:mm:ss =      0 h 00 m 14 s
 Estimated total run time in seconds =    50.576388835906982
 Estimated total run time in hh:mm:ss =      0 h 00 m 50 s
 The run will finish approximately on: Tue Jul 01, 2025 11:19


 ******************************************************************
 Time step #    2000 out of    2500
 ******************************************************************
 Time:    0.1599 s
 We have done    79.9919968     % of the total
 Max norm of vector field in solid (poroelastic) =    5.36407150E-08
 Max norm of vector field in fluid (poroelastic) =    4.92862819E-06
 Elapsed time in seconds =    40.430999994277954
 Elapsed time in hh:mm:ss =      0 h 00 m 40 s
 Mean elapsed time per time step in seconds =    2.0215499997138977E-002
 Time steps remaining =          500
 Estimated remaining time in seconds =    10.107749998569489
 Estimated remaining time in hh:mm:ss =      0 h 00 m 10 s
 Estimated total run time in seconds =    50.538749992847443
 Estimated total run time in hh:mm:ss =      0 h 00 m 50 s
 The run will finish approximately on: Tue Jul 01, 2025 11:19


 Total number of time steps done:         2000
 Writing the seismograms by main proc alone took    4.26599989E-03  seconds

 Creating color image of size         1610  x         1690  for time step         2000
 drawing scalar image of the forward wavefield displacement...
 Color image maximum amplitude =    5.3621413087512337E-008
 Color image created


 ******************************************************************
 Time step #    2200 out of    2500
 ******************************************************************
 Time:    0.1799 s
 We have done    87.9952011     % of the total
 Max norm of vector field in solid (poroelastic) =    5.05933286E-08
 Max norm of vector field in fluid (poroelastic) =    4.70017903E-06
 Elapsed time in seconds =    44.513999938964844
 Elapsed time in hh:mm:ss =      0 h 00 m 44 s
 Mean elapsed time per time step in seconds =    2.0233636335893111E-002
 Time steps remaining =          300
 Estimated remaining time in seconds =    6.0700909007679336
 Estimated remaining time in hh:mm:ss =      0 h 00 m 06 s
 Estimated total run time in seconds =    50.584090839732781
 Estimated total run time in hh:mm:ss =      0 h 00 m 50 s
 The run will finish approximately on: Tue Jul 01, 2025 11:19


 ******************************************************************
 Time step #    2400 out of    2500
 ******************************************************************
 Time:    0.1999 s
 We have done    95.9983978     % of the total
 Max norm of vector field in solid (poroelastic) =    4.79772808E-08
 Max norm of vector field in fluid (poroelastic) =    4.49699155E-06
 Elapsed time in seconds =    48.536000013351440
 Elapsed time in hh:mm:ss =      0 h 00 m 48 s
 Mean elapsed time per time step in seconds =    2.0223333338896435E-002
 Time steps remaining =          100
 Estimated remaining time in seconds =    2.0223333338896436
 Estimated remaining time in hh:mm:ss =      0 h 00 m 02 s
 Estimated total run time in seconds =    50.558333347241081
 Estimated total run time in hh:mm:ss =      0 h 00 m 50 s
 The run will finish approximately on: Tue Jul 01, 2025 11:19


 ******************************************************************
 Time step #    2500 out of    2500
 ******************************************************************
 Time:    0.2099 s
 We have done    100.000000     % of the total
 Max norm of vector field in solid (poroelastic) =    4.67469157E-08
 Max norm of vector field in fluid (poroelastic) =    4.40540316E-06
 Elapsed time in seconds =    50.544999837875366
 Elapsed time in hh:mm:ss =      0 h 00 m 50 s
 Mean elapsed time per time step in seconds =    2.0217999935150145E-002
 Time steps remaining =            0
 Estimated remaining time in seconds =    0.0000000000000000
 Estimated remaining time in hh:mm:ss =      0 h 00 m 00 s
 Estimated total run time in seconds =    50.544999837875366
 Estimated total run time in hh:mm:ss =      0 h 00 m 50 s


 Total number of time steps done:         2500
 Writing the seismograms by main proc alone took    2.14900007E-03  seconds

 Creating color image of size         1610  x         1690  for time step         2500
 drawing scalar image of the forward wavefield displacement...
 Color image maximum amplitude =    4.6726949420872188E-008
 Color image created


 Time loop finished. Timing info:
 Total duration of the time loop in seconds  =    50.6171608      s
 Total duration of the time loop in hh:mm:ss =      0 h 00 m 50 s

 Total number of time steps =         2500
 Average duration of a time step of the time loop =    2.02468634E-02  s

 Total number of spectral elements in the mesh =        40000
     of which        40000  are regular elements
     and            0  are PML elements.
 Average duration of the calculation per spectral element =    5.06171602E-07  s


 Total duration of the timeloop measured using date and time of the system
     in seconds     =    50.6189995      s
     in in hh:mm:ss =      0 h 00 m 50 s



 -------------------------------------------------------------------------------
 -------------------------------------------------------------------------------
 Program SPECFEM2D:
 -------------------------------------------------------------------------------
 -------------------------------------------------------------------------------
 poroelastic semi-infinite homogeneous
 -------------------------------------------------------------------------------
 -------------------------------------------------------------------------------
 D a t e : 01 - 07 - 2025                                 T i m e  : 11:18:54
 -------------------------------------------------------------------------------
 -------------------------------------------------------------------------------

see results in directory: OUTPUT_FILES/

done
Tue Jul 1 11:18:54 CEST 2025
