running example: Mon Jun 30 16:41:03 CEST 2025

   setting up example...


running mesher on 4 processors...


 **********************************************
 *** Specfem 2-D Mesher - MPI version       ***
 **********************************************

 Running Git version of the code corresponding to unknown
 dating unknown

 Reading the parameter file...

 Title of the simulation: Example of simulation with moving sources

 Receiver lines:
   Nb of line sets =            1

 Parameter file successfully read


 Mesh from internal meshing:
   Materials:
   Nb of solid, fluid or porous materials =            1

 --------
 Material #           1  isotropic
 rho,cp,cs   =    1000.0000000000000        1500.0000000000000        0.0000000000000000
 Qkappa, Qmu =    9999.0000000000000        9999.0000000000000
 Material is fluid
 --------

 Reading interface data from file: ./DATA/./interfaces
 Reading            2  points for interface            1
 Reading            2  points for interface            2

 Total number of layers in z direction =            1
 There are          100  spectral elements along Z in layer            1

 Total number of spectral elements along X =          270
 Total number of spectral elements along Z =          100

 Regions:
   Nb of regions in the mesh =            1

 ------
 Region            1
 IX from            1  to          270
 IZ from            1  to          100
 Material #            1  isotropic
 Material is fluid
 vp     =    1500.00000
 vs     =    0.00000000
 rho    =    1000.00000
 Poisson's ratio =   0.500000000
 QKappa =    9999.00000
 Qmu    =    9999.00000
 ------

 creating mesh from internal meshing:
   Total number of spectral elements         =        27000

 PML mesh elements:
   using internal mesh, PML elements will be determined in solver run...

 The mesh contains        27000  elements

 Control elements have            4  nodes

 Reading in SOURCE file...

 Source           1
   Moving source:
   Initial position xs, zs =   -800.00000000000000       -100.01000000000001
   Velocities       vx, vz =    400.00000000000000       -100.00000000000000

   Source type:            1
   (1=force, 2=moment tensor)

   Force source:
   Angle of the source (deg) =    0.0000000000000000

   Time function type:          10
   ( 0=Normalized Gaussian,  1=Ricker,          2=First derivative,  3=Gaussian,        4=Dirac,
     5=Heaviside,            6=Ocean type I,    7=Ocean type II,     8=Read from file,  9=Burst,
    10=Sinusoidal,          11=Ormsby,         12=Brune,            13=Smoothed Brune, 14=Yoffe )
   Sinusoidal source time function:
   Frequency, delay   =    30.000000000000000        0.0000000000000000
   Multiplying factor =    100000.00000000000

 Source           2
   Moving source:
   Initial position xs, zs =    800.00000000000000       -100.01000000000001
   Velocities       vx, vz =   -400.00000000000000       -100.00000000000000

   Source type:            1
   (1=force, 2=moment tensor)

   Force source:
   Angle of the source (deg) =    0.0000000000000000

   Time function type:          10
   ( 0=Normalized Gaussian,  1=Ricker,          2=First derivative,  3=Gaussian,        4=Dirac,
     5=Heaviside,            6=Ocean type I,    7=Ocean type II,     8=Read from file,  9=Burst,
    10=Sinusoidal,          11=Ormsby,         12=Brune,            13=Smoothed Brune, 14=Yoffe )
   Sinusoidal source time function:
   Frequency, delay   =    30.000000000000000        0.0000000000000000
   Multiplying factor =    100000.00000000000

 all sources are okay

 Normals to surface not needed

 Node coordinates:

 reading node coordinates from interfaces...

 Mesh surfaces:
   determining acoustic free surface...
   number of acoustic elements with free surface =            0

   determining absorbing boundary surfaces...
   number of elements with absorbing boundaries =          740


 Mesh dimensions:
   Min and max value of X in the grid =   -1000.0000000000000        1000.0000000000000
   Min and max value of Z in the grid =   -750.00000000000011        0.0000000000000000

 checking mesh elements for invalid Jacobians...
   number of elements:        27000
   NGNOD             :            4
   AXISYM            :  F
   all elements have valid Jacobians

 Mesh partitioning:
   decomposing mesh using NPROC =            4

 Graph construction:
   graph adjacency done

 ************ Computing elements load ************
 Number of elastic elements :           0
 Number of acoustic elements :       24816
 Number of viscoelastic elements :           0
 Number of viscoacoustic elements :           0
 Number of elastic PML elements :           0
 Number of acoustic PML elements :        2184
 Number of viscoelastic PML elements :           0
 Number of viscoacoustic PML elements :           0
 *************************************************


 Partitioning type: SCOTCH

 Coupled interfaces:
 nedges_coupled (acoustic/elastic)     =            0
 nedges_coupled (acoustic/poroelastic) =            0
 nedges_coupled (poroelastic/elastic)  =            0

 Local numbering:
   NPROC:            4
   number of elements:        27000

 decompose mesh all done

 Absorbing boundaries:
   nedge_bound   :          740
   nelemabs_merge:          740

 Saving databases:
   database file: ./OUTPUT_FILES/Database00000.bin
   slice            0  has number of spectral elements =        7896

   database file: ./OUTPUT_FILES/Database00001.bin
   slice            1  has number of spectral elements =        5600

   database file: ./OUTPUT_FILES/Database00002.bin
   slice            2  has number of spectral elements =        7804

   database file: ./OUTPUT_FILES/Database00003.bin
   slice            3  has number of spectral elements =        5700

   VTK mesh files:
   written file: ./OUTPUT_FILES//mesh_materials.vtk
   written file: ./OUTPUT_FILES//mesh_partition_number.vtk
   done

 creating STATIONS file...

 writing the ./DATA/STATIONS file


 There are            8  receivers

 Target positions (x,z) of the            8  receivers

 Receiver            1  =   -300.00000000000000       -110.00000000000000
 Receiver            2  =   -214.28571428571428       -110.00000000000000
 Receiver            3  =   -128.57142857142858       -110.00000000000000
 Receiver            4  =   -42.857142857142833       -110.00000000000000
 Receiver            5  =    42.857142857142833       -110.00000000000000
 Receiver            6  =    128.57142857142856       -110.00000000000000
 Receiver            7  =    214.28571428571433       -110.00000000000000
 Receiver            8  =    300.00000000000000       -110.00000000000000

 This will be a parallel simulation on            4  processor cores


running solver on 4 processors...


 **********************************************
 **** Specfem 2-D Solver - MPI version     ****
 **********************************************

 Running Git version of the code corresponding to unknown
 dating unknown

 There are            4  MPI processes
 Processes are numbered from 0 to            3

 There is a total of            4  slices


 NDIM =            2

 NGLLX =            5
 NGLLZ =            5

 using single precision for the calculations

 smallest and largest possible floating-point numbers are:    1.17549435E-38   3.40282347E+38

 Reading the parameter file...

 Title of the simulation: Example of simulation with moving sources

 Receiver lines:
   Nb of line sets =            1

 Parameter file successfully read

 Reading in SOURCE file...

 Source           1
   Moving source:
   Initial position xs, zs =   -800.00000000000000       -100.01000000000001
   Velocities       vx, vz =    400.00000000000000       -100.00000000000000

   Source type:            1
   (1=force, 2=moment tensor)

   Force source:
   Angle of the source (deg) =    0.0000000000000000

   Time function type:          10
   ( 0=Normalized Gaussian,  1=Ricker,          2=First derivative,  3=Gaussian,        4=Dirac,
     5=Heaviside,            6=Ocean type I,    7=Ocean type II,     8=Read from file,  9=Burst,
    10=Sinusoidal,          11=Ormsby,         12=Brune,            13=Smoothed Brune, 14=Yoffe )
   Sinusoidal source time function:
   Frequency, delay   =    30.000000000000000        0.0000000000000000
   Multiplying factor =    100000.00000000000

 Source           2
   Moving source:
   Initial position xs, zs =    800.00000000000000       -100.01000000000001
   Velocities       vx, vz =   -400.00000000000000       -100.00000000000000

   Source type:            1
   (1=force, 2=moment tensor)

   Force source:
   Angle of the source (deg) =    0.0000000000000000

   Time function type:          10
   ( 0=Normalized Gaussian,  1=Ricker,          2=First derivative,  3=Gaussian,        4=Dirac,
     5=Heaviside,            6=Ocean type I,    7=Ocean type II,     8=Read from file,  9=Burst,
    10=Sinusoidal,          11=Ormsby,         12=Brune,            13=Smoothed Brune, 14=Yoffe )
   Sinusoidal source time function:
   Frequency, delay   =    30.000000000000000        0.0000000000000000
   Multiplying factor =    100000.00000000000

 all sources are okay



 -------------------------------------------------------------------------------
 -------------------------------------------------------------------------------
 Program SPECFEM2D:
 -------------------------------------------------------------------------------
 -------------------------------------------------------------------------------
 Example of simulation with moving sources
 -------------------------------------------------------------------------------
 -------------------------------------------------------------------------------
 D a t e : 30 - 06 - 2025                                 T i m e  : 16:41:04
 -------------------------------------------------------------------------------
 -------------------------------------------------------------------------------


 C o n t r o l
 =============

     Number of spectral element control nodes. . .(npgeo) =   27676
     Number of space dimensions. . . . . . . . . . (NDIM) =       2


 C o n t r o l
 =============

     Display frequency . . . (NTSTEP_BETWEEN_OUTPUT_INFO) =   1000
     Color display . . . . . . . . . . . . . . . (colors) =      1
      == 0     black and white display
      == 1     color display
     Numbered mesh . . . . . . . . . . . . . . .(numbers) =      0
      == 0     do not number the mesh
      == 1     number the mesh


 C o n t r o l
 =============

     Seismograms recording type . . . . . . .(seismotype) = 4
     Angle for first line of receivers. . . . .(anglerec) =   0.00


 C o n t r o l
 =============

     Read external initial field. . . . . .(initialfield) =      F
     Add Bielak conditions (add_Bielak_conditions_bottom) =      F
     Add Bielak conditions .(add_Bielak_conditions_right) =      F
     Add Bielak conditions . .(add_Bielak_conditions_top) =      F
     Add Bielak conditions. .(add_Bielak_conditions_left) =      F
     Attenuation in solid . . .(ATTENUATION_VISCOELASTIC) =      F
     Attenuation in fluid . . (ATTENUATION_VISCOACOUSTIC) =      F
     Save grid in ASCII file or not . (output_grid_ASCII) =      F
     Save a file with total energy or not.(OUTPUT_ENERGY) =      F


 C o n t r o l
 =============

     Vector display type . . . . . . . . .(imagetype_postscript) =      1
     Percentage of cut for vector plots. . . . . . . .(cutsnaps) =   1.00
     Subsampling of velocity model display. (subsamp_postscript) =      1


 I t e r a t i o n s
 ===================

     Number of time iterations . . . . .(NSTEP) =   12000
     Time step increment. . . . . . . . . .(DT) =   2.500000E-04
     Total simulation duration . . . . . (ttot) =   3.000000E+00


 reading mesh databases:
 reading nodal coordinates...

 -- Spectral Elements --


     Number of spectral elements . . . . . . . . .  (nspec) =  27000
     Number of control nodes per element . . . . . (NGNOD) =      4
     Number of points in X-direction . . . . . . . (NGLLX) =      5
     Number of points in Y-direction . . . . . . . (NGLLZ) =      5
     Number of points per element. . . . . . (NGLLX*NGLLZ) =     25
     Number of points for display . . . . . . (pointsdisp) =      3
     Number of element material sets . . . . . . . (numat) =      1
     Number of acoustic forcing elements (nelem_acforcing) =      0
     Number of acoustic free surf (nelem_acoustic_surface) =      0

 reading attenuation setup...
 reading material properties..


 M a t e r i a l   s e t s :   2 D  (p o r o) e l a s t i c i t y
 ======================================================

     Number of material sets . . . . . . (numat) =     1


     -------------------------------
     -- Acoustic (fluid) material --
     -------------------------------
     Material set number. . . . . . . . (jmat) =     1
     P-wave velocity. . . . . . . . . . . (cp) = 1.50000000E+03
     Mass density. . . . . . . . . . (density) = 1.00000000E+03
     Bulk modulus Kappa . . . . . . . .(kappa) = 2.25000000E+09
     QKappa_attenuation. . . . . . . .(QKappa) = 9.99900000E+03
     Qmu_attenuation. . . . . . . . . . .(Qmu) = 9.99900000E+03

 reading interfaces informations...
   number of interfaces         =            2

 reading absorbing boundary...
   Total number of absorbing elements =          740

   any absorbing boundary flag        =  T
   PML boundary flag                  =  T
   Stacey boundary flag               =  F


 Absorbing boundaries:
   using PML boundary conditions

 reading acoustic forcing...
   acoustic forcing                             =  F
   number of acoustic forcing boundary elements =            0

 reading free surface information...
   number of acoustic free surface boundary elements =            0

 reading coupling surfaces...
   number of fluid-solid edges  =            0
   number of fluid-poro  edges  =            0
   number of solid-poro  edges  =            0

 reading tangential curves...
   number of tangential curve nodes =            0

 reading axial elements...
   number of axial elements     =            0

 done reading mesh databases


 Setting up mesh

 Generating global mesh numbering (fast version)...

 Mesh numbering:
   Total number of elements:        27000

   Total number of acoustic elements           =        27000
   Total number of elastic/visco/poro elements =            0

 Approximate total number of grid points in the mesh
 (with a few duplicates coming from MPI buffers):       434692

 Approximate number of acoustic degrees of freedom in the mesh:       434692
 Approximate number of elastic degrees of freedom in the mesh:            0
   (there are 2 degrees of freedom per point for elastic elements)

 Approximate total number of degrees of freedom in the mesh
 (sum of the two values above):       434692

  (for simplicity viscoelastic or poroelastic elements, if any,
   are counted as elastic in the above three estimates;
   in reality they have more degrees of freedom)

 Mesh dimensions:
   Xmin,Xmax of the whole mesh =   -1000.0000000000000        1000.0000000000000
   Zmin,Zmax of the whole mesh =   -750.00000000000023        0.0000000000000000

 Material properties:
   MODEL                   : default
   nspec                   :        27000
   external velocity model :  F

   setting up material arrays
   fluid:
     rho : min/max =    1000.00000     /   1000.00000
     vp  : min/max =    1499.99988     /   1499.99988

   all material arrays done


 Domains:
   total number of acoustic elements        =        27000
   total number of elastic elements         =            0
   total number of poroelastic elements     =            0
   total number of electromagnetic elements =            0

 Setting up MPI communication arrays

   maximum number of MPI interfaces (for a single slice) =            2

   total MPI interface points:         2422

   checking acoustic interfaces:
   total number of global acoustic interface points:         2422
   total number of global points assembled by acoustic MPI interfaces:        2422
   interfaces okay

   main process:
   number of MPI interfaces in acoustic domain    =            2
   number of MPI interfaces in elastic domain     =            0
   number of MPI interfaces in poroelastic domain =            0
   number of MPI interfaces in electromagnetic domain =            0

   number of outer elements  =          202
   number of inner elements  =         7694

   percentage of outer elements    2.55825806     %
   percentage of inner elements    97.4417419     %

   number of global nodes in outer elements  =         4050
   number of global nodes in inner elements  =       123813

   determining communication phases:
   acoustic domains:
   total number of outer/inner elements =          604       26396
   total percentage of outer elements    2.23703766     %
   total percentage of inner elements    97.7629623     %

 All mesh setup done successfully

 Sources
 =======

   Total number of sources:            2

   Setting parameters for source           1

     Source Type. . . . . . . . . . . . . . = Collocated Force
     Initial X-position (meters). . . . . . =   -8.0000000000E+02
     Initial Y-position (meters). . . . . . =   -1.0001000000E+02
     X-velocity (meters/second). . .  . . . =    4.0000000000E+02
     Z-velocity (meters/second). . .  . . . =   -1.0000000000E+02
     Fundamental frequency (Hz) . . . . . . =    3.0000000000E+01
     Time delay (s) . . . . . . . . . . . . =    0.0000000000E+00
     Multiplying factor . . . . . . . . . . =    1.0000000000E+05
     Angle from vertical direction (deg). . =    0.0000000000E+00

     Source time function
     Sinusoidal

   Setting parameters for source           2

     Source Type. . . . . . . . . . . . . . = Collocated Force
     Initial X-position (meters). . . . . . =    8.0000000000E+02
     Initial Y-position (meters). . . . . . =   -1.0001000000E+02
     X-velocity (meters/second). . .  . . . =   -4.0000000000E+02
     Z-velocity (meters/second). . .  . . . =   -1.0000000000E+02
     Fundamental frequency (Hz) . . . . . . =    3.0000000000E+01
     Time delay (s) . . . . . . . . . . . . =    0.0000000000E+00
     Multiplying factor . . . . . . . . . . =    1.0000000000E+05
     Angle from vertical direction (deg). . =    0.0000000000E+00

     Source time function
     Sinusoidal

 determining source onset times...
   simulation start time t0 =   -0.0000000000000000       s

   Source:            1
     Onset time. . . . . . =   -0.0000000000000000
     Fundamental period. . =    3.3333333333333333E-002
     Fundamental frequency =    30.000000000000000
     The onset time is ok

   Source:            2
     Onset time. . . . . . =   -0.0000000000000000
     Fundamental period. . =    3.3333333333333333E-002
     Fundamental frequency =    30.000000000000000
     The onset time is ok

 Source:            1
 Source:            2

 receivers:

 Total number of receivers =            8


 ********************
  locating receivers
 ********************

 reading receiver information from the ./DATA/STATIONS file


 Station #            1     AA      S0001
             original x:   -300.000000
             original z:   -110.000000
 Closest estimate found:    0.00000000      m away
  in rank            0
  in element         6752
  in acoustic domain
  at xi,gamma coordinates =    6.3108872417680944E-030 -0.33333333333332860
 Distance from source:    500.099792      m


 Station #            2     AA      S0002
             original x:   -214.285721
             original z:   -110.000000
 Closest estimate found:    2.84217094E-14  m away
  in rank            0
  in element         6764
  in acoustic domain
  at xi,gamma coordinates =  -0.85714286100001758      -0.33333333333333237
 Distance from source:    585.799500      m


 Station #            3     AA      S0003
             original x:   -128.571426
             original z:   -110.000000
 Closest estimate found:    0.00000000      m away
  in rank            0
  in element         6775
  in acoustic domain
  at xi,gamma coordinates =   0.28571427800001570      -0.33333333333332915
 Distance from source:    671.502869      m


 Station #            4     AA      S0004
             original x:   -42.8571434
             original z:   -110.000000
 Closest estimate found:    7.10542736E-15  m away
  in rank            0
  in element         6787
  in acoustic domain
  at xi,gamma coordinates =  -0.57142858299999588      -0.33333333333332449
 Distance from source:    757.208740      m


 Station #            5     AA      S0005
             original x:    42.8571434
             original z:   -110.000000
 Closest estimate found:    0.00000000      m away
  in rank            2
  in element         6638
  in acoustic domain
  at xi,gamma coordinates =   0.57142858300002464      -0.33333333333332127
 Distance from source:    842.916321      m


 Station #            6     AA      S0006
             original x:    128.571426
             original z:   -110.000000
 Closest estimate found:    1.42108547E-14  m away
  in rank            2
  in element         6650
  in acoustic domain
  at xi,gamma coordinates =  -0.28571427799998533      -0.33333333333332560
 Distance from source:    928.625183      m


 Station #            7     AA      S0007
             original x:    214.285721
             original z:   -110.000000
 Closest estimate found:    0.00000000      m away
  in rank            2
  in element         6661
  in acoustic domain
  at xi,gamma coordinates =   0.85714286099999959      -0.33333333333332854
 Distance from source:    1014.33490      m


 Station #            8     AA      S0008
             original x:    300.000000
             original z:   -110.000000
 Closest estimate found:    0.00000000      m away
  in rank            2
  in element         6673
  in acoustic domain
  at xi,gamma coordinates =   -3.1554436208840472E-029 -0.33333333333333592
 Distance from source:    1100.04541      m

 maximum error in location of all the receivers:    2.84217094E-14  m

 end of receiver detection

 found a total of            8  receivers, this is okay


 Preparing timerun:

 Movie simulation:
   color images         - JPEG image type:           10
   number of steps between outputs       :         1000

 Preparing image coloring: jpeg
   allocating color image arrays
   locating all the pixels of color images
   total number of image pixels =       463980
   done locating all the pixels of color images
   coloring image background based on velocity

 Checking mesh and stability

 ********
 Model: P (or PI) velocity min,max =    1500.0000000000000        1500.0000000000000
 Model: S velocity min,max         =    0.0000000000000000        0.0000000000000000
 Model: density min,max            =    1000.0000000000000        1000.0000000000000
 ********


 *********************************************
 *** Verification of simulation parameters ***
 *********************************************

 *** Max grid size =    7.5000000000001137
 *** Min grid size =    7.4074074074073906
 *** Max/min ratio =    1.0125000000000177

 *** Minimum GLL point distance  =    1.2790604788593407
 *** Average GLL point distance  =    1.8518518518518476

 *** Minimum period resolved     =    6.2500000000000940E-003
 *** Maximum frequency resolved  =    159.99999999999758      Hz

 *** Maximum suggested time step                 =    4.2635349295311358E-004
 *** Maximum suggested (Ricker) source frequency =    63.999999999999034

 *** for DT :    2.50000012E-04
 *** Max CFL stability condition of the time scheme based on P wave velocity (must be below about 0.50 or so) =   0.29318394727857044

 mesh resolution output files:
   written file: ./OUTPUT_FILES/mesh00000_res_minimum_period.vtk
   written file: ./OUTPUT_FILES/mesh00000_res_dt_suggested.vtk

 Preparing timerun constants

 Preparing array allocations
   arrays for acoustic domains
   done initialization


 Preparing PML
   rotate PML activated   : F
   backward reconstruction: F
   total number of PML spectral elements:         2184

   number of points on acoustic abs in this slice =          626
   number of points on  elastic abs in this slice =            0

   defining PML coefficients:
     using mesh dimension : xmin/xmax =   -1000.00000     /   1000.00000
                            zmin/zmax =   -750.000000     /   0.00000000
     thickness PML: left   =    22.2222214
                    right  =    22.2222214
                    bottom =    22.5000000
                    top    =    22.5000000
     maximum dominant frequency (sources):    40.9090919      (includes Doppler shift)
     PML coefficients all set

 Attenuation:
   viscoelastic  attenuation:  F (shear & bulk attenuation in elastic domains)
   viscoacoustic attenuation:  F (bulk attenuation in acoustic domains)
   poro-fluid    attenuation:  F (viscous attenuation in poroelastic domains)
   permittivity  attenuation:  F (for electromagnetic materials)

 Preparing mass matrices
   initializing mass matrices
   inverting mass matrices


 Preparing source time function
   time stepping scheme:   Newmark
   time stepping stages:            1
   time step size      :    2.50000012E-04

   number of time steps:        12000
   number of sources   :            2

   saving the source time function in a text file...

 preparing optimized arrays
   fused array done

 Elapsed time for preparing timerun in seconds =   0.15914000000000003

 ************
  time loop
 ************
               scheme:         Newmark

            time step:    2.50000012E-04  s
 number of time steps:        12000
 total simulated time:    3.00000000      seconds
 start time:  -0.00000000      seconds


 =========================================
 =  T i m e  e v o l u t i o n  l o o p  =
 =========================================


 Starting time iteration loop ...


 ****************************************************************************************
 Your are using acoustic moving source capabilities. Please cite:
 Bottero (2018) Full-wave numerical simulation of T-waves and of moving acoustic sources
 PhD thesis
 https://tel.archives-ouvertes.fr/tel-01893011
 ****************************************************************************************

 Note: subroutine compute_add_sources_acoustic_moving_sources can be greatly
 optimized. See what is done in init_moving_sources (in moving_sources_par.f90).
 This is easy to do and would probably greatly improve the computational time


 ******************************************************************
 Time step #       5 out of   12000
 ******************************************************************
 Time:    0.0010 s
 We have done    3.33361104E-02 % of the total
 Max absolute value of scalar field in fluid (acoustic) =    11.2900238
 Elapsed time in seconds =    1.3999938964843750E-002
 Elapsed time in hh:mm:ss =      0 h 00 m 00 s
 Mean elapsed time per time step in seconds =    2.7999877929687500E-003
 Time steps remaining =        11995
 Estimated remaining time in seconds =    33.585853576660156
 Estimated remaining time in hh:mm:ss =      0 h 00 m 33 s
 Estimated total run time in seconds =    33.599853515625000
 Estimated total run time in hh:mm:ss =      0 h 00 m 33 s
 The run will finish approximately on: Mon Jun 30, 2025 16:42

 Creating color image of size         1110  x          440  for time step            5
 drawing scalar image of the forward wavefield pressure...
 Color image maximum amplitude =    21.689186096191406
 Color image created


 ******************************************************************
 Time step #    1000 out of   12000
 ******************************************************************
 Time:    0.2497 s
 We have done    8.32569408     % of the total
 Max absolute value of scalar field in fluid (acoustic) =    462.656006
 Elapsed time in seconds =    2.6639997959136963
 Elapsed time in hh:mm:ss =      0 h 00 m 02 s
 Mean elapsed time per time step in seconds =    2.6639997959136963E-003
 Time steps remaining =        11000
 Estimated remaining time in seconds =    29.303997755050659
 Estimated remaining time in hh:mm:ss =      0 h 00 m 29 s
 Estimated total run time in seconds =    31.967997550964355
 Estimated total run time in hh:mm:ss =      0 h 00 m 31 s
 The run will finish approximately on: Mon Jun 30, 2025 16:42

 Creating color image of size         1110  x          440  for time step         1000
 drawing scalar image of the forward wavefield pressure...
 Color image maximum amplitude =    439.88897705078125
 Color image created


 ******************************************************************
 Time step #    2000 out of   12000
 ******************************************************************
 Time:    0.4998 s
 We have done    16.6597214     % of the total
 Max absolute value of scalar field in fluid (acoustic) =    507.448730
 Elapsed time in seconds =    5.3589999675750732
 Elapsed time in hh:mm:ss =      0 h 00 m 05 s
 Mean elapsed time per time step in seconds =    2.6794999837875368E-003
 Time steps remaining =        10000
 Estimated remaining time in seconds =    26.794999837875366
 Estimated remaining time in hh:mm:ss =      0 h 00 m 26 s
 Estimated total run time in seconds =    32.153999805450439
 Estimated total run time in hh:mm:ss =      0 h 00 m 32 s
 The run will finish approximately on: Mon Jun 30, 2025 16:42

 Creating color image of size         1110  x          440  for time step         2000
 drawing scalar image of the forward wavefield pressure...
 Color image maximum amplitude =    440.66629028320312
 Color image created


 ******************************************************************
 Time step #    3000 out of   12000
 ******************************************************************
 Time:    0.7498 s
 We have done    24.9937496     % of the total
 Max absolute value of scalar field in fluid (acoustic) =    458.067657
 Elapsed time in seconds =    8.0439999103546143
 Elapsed time in hh:mm:ss =      0 h 00 m 08 s
 Mean elapsed time per time step in seconds =    2.6813333034515379E-003
 Time steps remaining =         9000
 Estimated remaining time in seconds =    24.131999731063843
 Estimated remaining time in hh:mm:ss =      0 h 00 m 24 s
 Estimated total run time in seconds =    32.175999641418457
 Estimated total run time in hh:mm:ss =      0 h 00 m 32 s
 The run will finish approximately on: Mon Jun 30, 2025 16:42

 Creating color image of size         1110  x          440  for time step         3000
 drawing scalar image of the forward wavefield pressure...
 Color image maximum amplitude =    435.39678955078125
 Color image created


 ******************************************************************
 Time step #    4000 out of   12000
 ******************************************************************
 Time:    0.9998 s
 We have done    33.3277779     % of the total
 Max absolute value of scalar field in fluid (acoustic) =    477.836853
 Elapsed time in seconds =    10.721999883651733
 Elapsed time in hh:mm:ss =      0 h 00 m 10 s
 Mean elapsed time per time step in seconds =    2.6804999709129332E-003
 Time steps remaining =         8000
 Estimated remaining time in seconds =    21.443999767303467
 Estimated remaining time in hh:mm:ss =      0 h 00 m 21 s
 Estimated total run time in seconds =    32.165999650955200
 Estimated total run time in hh:mm:ss =      0 h 00 m 32 s
 The run will finish approximately on: Mon Jun 30, 2025 16:42

 Creating color image of size         1110  x          440  for time step         4000
 drawing scalar image of the forward wavefield pressure...
 Color image maximum amplitude =    447.88619995117188
 Color image created


 ******************************************************************
 Time step #    5000 out of   12000
 ******************************************************************
 Time:    1.2497 s
 We have done    41.6618042     % of the total
 Max absolute value of scalar field in fluid (acoustic) =    465.214111
 Elapsed time in seconds =    13.406999826431274
 Elapsed time in hh:mm:ss =      0 h 00 m 13 s
 Mean elapsed time per time step in seconds =    2.6813999652862547E-003
 Time steps remaining =         7000
 Estimated remaining time in seconds =    18.769799757003781
 Estimated remaining time in hh:mm:ss =      0 h 00 m 18 s
 Estimated total run time in seconds =    32.176799583435056
 Estimated total run time in hh:mm:ss =      0 h 00 m 32 s
 The run will finish approximately on: Mon Jun 30, 2025 16:42

 Creating color image of size         1110  x          440  for time step         5000
 drawing scalar image of the forward wavefield pressure...
 Color image maximum amplitude =    442.29745483398438
 Color image created


 ******************************************************************
 Time step #    6000 out of   12000
 ******************************************************************
 Time:    1.4998 s
 We have done    49.9958344     % of the total
 Max absolute value of scalar field in fluid (acoustic) =    497.836792
 Elapsed time in seconds =    16.101999998092651
 Elapsed time in hh:mm:ss =      0 h 00 m 16 s
 Mean elapsed time per time step in seconds =    2.6836666663487751E-003
 Time steps remaining =         6000
 Estimated remaining time in seconds =    16.101999998092651
 Estimated remaining time in hh:mm:ss =      0 h 00 m 16 s
 Estimated total run time in seconds =    32.203999996185303
 Estimated total run time in hh:mm:ss =      0 h 00 m 32 s
 The run will finish approximately on: Mon Jun 30, 2025 16:42

 Creating color image of size         1110  x          440  for time step         6000
 drawing scalar image of the forward wavefield pressure...
 Color image maximum amplitude =    455.28277587890625
 Color image created


 ******************************************************************
 Time step #    7000 out of   12000
 ******************************************************************
 Time:    1.7498 s
 We have done    58.3298607     % of the total
 Max absolute value of scalar field in fluid (acoustic) =    418.385620
 Elapsed time in seconds =    18.786999940872192
 Elapsed time in hh:mm:ss =      0 h 00 m 18 s
 Mean elapsed time per time step in seconds =    2.6838571344103132E-003
 Time steps remaining =         5000
 Estimated remaining time in seconds =    13.419285672051565
 Estimated remaining time in hh:mm:ss =      0 h 00 m 13 s
 Estimated total run time in seconds =    32.206285612923757
 Estimated total run time in hh:mm:ss =      0 h 00 m 32 s
 The run will finish approximately on: Mon Jun 30, 2025 16:42

 Creating color image of size         1110  x          440  for time step         7000
 drawing scalar image of the forward wavefield pressure...
 Color image maximum amplitude =    414.99218750000000
 Color image created


 ******************************************************************
 Time step #    8000 out of   12000
 ******************************************************************
 Time:    1.9998 s
 We have done    66.6638870     % of the total
 Max absolute value of scalar field in fluid (acoustic) =    1019.81628
 Elapsed time in seconds =    21.478999853134155
 Elapsed time in hh:mm:ss =      0 h 00 m 21 s
 Mean elapsed time per time step in seconds =    2.6848749816417695E-003
 Time steps remaining =         4000
 Estimated remaining time in seconds =    10.739499926567078
 Estimated remaining time in hh:mm:ss =      0 h 00 m 10 s
 Estimated total run time in seconds =    32.218499779701233
 Estimated total run time in hh:mm:ss =      0 h 00 m 32 s
 The run will finish approximately on: Mon Jun 30, 2025 16:42

 Creating color image of size         1110  x          440  for time step         8000
 drawing scalar image of the forward wavefield pressure...
 Color image maximum amplitude =    868.44158935546875
 Color image created


 ******************************************************************
 Time step #    9000 out of   12000
 ******************************************************************
 Time:    2.2498 s
 We have done    74.9979172     % of the total
 Max absolute value of scalar field in fluid (acoustic) =    516.301819
 Elapsed time in seconds =    24.164999961853027
 Elapsed time in hh:mm:ss =      0 h 00 m 24 s
 Mean elapsed time per time step in seconds =    2.6849999957614477E-003
 Time steps remaining =         3000
 Estimated remaining time in seconds =    8.0549999872843436
 Estimated remaining time in hh:mm:ss =      0 h 00 m 08 s
 Estimated total run time in seconds =    32.219999949137375
 Estimated total run time in hh:mm:ss =      0 h 00 m 32 s
 The run will finish approximately on: Mon Jun 30, 2025 16:42

 Creating color image of size         1110  x          440  for time step         9000
 drawing scalar image of the forward wavefield pressure...
 Color image maximum amplitude =    493.70285034179688
 Color image created


 ******************************************************************
 Time step #   10000 out of   12000
 ******************************************************************
 Time:    2.4998 s
 We have done    83.3319473     % of the total
 Max absolute value of scalar field in fluid (acoustic) =    485.727081
 Elapsed time in seconds =    26.855999946594238
 Elapsed time in hh:mm:ss =      0 h 00 m 26 s
 Mean elapsed time per time step in seconds =    2.6855999946594237E-003
 Time steps remaining =         2000
 Estimated remaining time in seconds =    5.3711999893188471
 Estimated remaining time in hh:mm:ss =      0 h 00 m 05 s
 Estimated total run time in seconds =    32.227199935913085
 Estimated total run time in hh:mm:ss =      0 h 00 m 32 s
 The run will finish approximately on: Mon Jun 30, 2025 16:42

 Creating color image of size         1110  x          440  for time step        10000
 drawing scalar image of the forward wavefield pressure...
 Color image maximum amplitude =    448.09719848632812
 Color image created


 ******************************************************************
 Time step #   11000 out of   12000
 ******************************************************************
 Time:    2.7498 s
 We have done    91.6659698     % of the total
 Max absolute value of scalar field in fluid (acoustic) =    452.295532
 Elapsed time in seconds =    29.546999931335449
 Elapsed time in hh:mm:ss =      0 h 00 m 29 s
 Mean elapsed time per time step in seconds =    2.6860909028486772E-003
 Time steps remaining =         1000
 Estimated remaining time in seconds =    2.6860909028486772
 Estimated remaining time in hh:mm:ss =      0 h 00 m 02 s
 Estimated total run time in seconds =    32.233090834184125
 Estimated total run time in hh:mm:ss =      0 h 00 m 32 s
 The run will finish approximately on: Mon Jun 30, 2025 16:42

 Creating color image of size         1110  x          440  for time step        11000
 drawing scalar image of the forward wavefield pressure...
 Color image maximum amplitude =    419.93554687500000
 Color image created


 ******************************************************************
 Time step #   12000 out of   12000
 ******************************************************************
 Time:    2.9998 s
 We have done    100.000000     % of the total
 Max absolute value of scalar field in fluid (acoustic) =    441.413483
 Elapsed time in seconds =    32.227999925613403
 Elapsed time in hh:mm:ss =      0 h 00 m 32 s
 Mean elapsed time per time step in seconds =    2.6856666604677835E-003
 Time steps remaining =            0
 Estimated remaining time in seconds =    0.0000000000000000
 Estimated remaining time in hh:mm:ss =      0 h 00 m 00 s
 Estimated total run time in seconds =    32.227999925613403
 Estimated total run time in hh:mm:ss =      0 h 00 m 32 s


 Total number of time steps done:        12000
 Writing the seismograms by main proc alone took   0.102160998      seconds

 Creating color image of size         1110  x          440  for time step        12000
 drawing scalar image of the forward wavefield pressure...
 Color image maximum amplitude =    413.13449096679688
 Color image created


 Time loop finished. Timing info:
 Total duration of the time loop in seconds  =    32.3486214      s
 Total duration of the time loop in hh:mm:ss =      0 h 00 m 32 s

 Total number of time steps =        12000
 Average duration of a time step of the time loop =    2.69571855E-03  s

 Total number of spectral elements in the mesh =        27000
     of which        24816  are regular elements
     and         2184  are PML elements.
 Average duration of the calculation per spectral element =    9.98414293E-08  s


 Total duration of the timeloop measured using date and time of the system
     in seconds     =    32.3520012      s
     in in hh:mm:ss =      0 h 00 m 32 s



 -------------------------------------------------------------------------------
 -------------------------------------------------------------------------------
 Program SPECFEM2D:
 -------------------------------------------------------------------------------
 -------------------------------------------------------------------------------
 Example of simulation with moving sources
 -------------------------------------------------------------------------------
 -------------------------------------------------------------------------------
 D a t e : 30 - 06 - 2025                                 T i m e  : 16:41:36
 -------------------------------------------------------------------------------
 -------------------------------------------------------------------------------

see results in directory: OUTPUT_FILES/

done
Mon Jun 30 16:41:36 CEST 2025
