running example: Mon Jun 30 14:56:27 CEST 2025

setting up example...


running mesher...


 **********************************************
 *** Specfem 2-D Mesher - MPI version       ***
 **********************************************

 Running Git version of the code corresponding to unknown
 dating unknown

 Reading the parameter file...

 Title of the simulation: Test for 2D P-SV elastic

 Receiver lines:
   Nb of line sets =            1

 Parameter file successfully read 


 Mesh from internal meshing:
   Materials:
   Nb of solid, fluid or porous materials =            1

 --------
 Material #           1  isotropic
 rho,cp,cs   =    2200.0000000000000        3200.0000000000000        1847.5000000000000     
 Qkappa, Qmu =    20.000000000000000        10.000000000000000     
 Material is solid
 --------

 Reading interface data from file: ./DATA/interfaces_elastic_analytic.dat
 Reading            2  points for interface            1
 Reading            2  points for interface            2

 Total number of layers in z direction =            1
 There are           50  spectral elements along Z in layer            1

 Total number of spectral elements along X =           50
 Total number of spectral elements along Z =           50

 Regions:
   Nb of regions in the mesh =            1

 ------
 Region            1
 IX from            1  to           50
 IZ from            1  to           50
 Material #            1  isotropic
 Material is solid
 vp     =    3200.00000    
 vs     =    1847.50000    
 rho    =    2200.00000    
 Poisson's ratio =   0.250008464    
 QKappa =    20.0000000    
 Qmu    =    10.0000000    
 ------

 creating mesh from internal meshing:
   Total number of spectral elements         =         2500

 PML mesh elements:
   using internal mesh, PML elements will be determined in solver run...

 The mesh contains         2500  elements

 Control elements have            4  nodes

 Reading in SOURCE file...

 Source           1
   Position xs, zs =    1000.0000000000000       -1000.0000000000000     

   Source type:            2
   (1=force, 2=moment tensor)

   Moment tensor source:
   Mxx of the source =    0.0000000000000000     
   Mzz of the source =    0.0000000000000000     
   Mxz of the source =    1.0000000000000000     

   Time function type:           1
   ( 0=Normalized Gaussian,  1=Ricker,          2=First derivative,  3=Gaussian,        4=Dirac,
     5=Heaviside,            6=Ocean type I,    7=Ocean type II,     8=Read from file,  9=Burst,
    10=Sinusoidal,          11=Ormsby,         12=Brune,            13=Smoothed Brune, 14=Yoffe )
   Ricker wavelet (second-derivative):
   Frequency, delay   =    10.000000000000000        0.0000000000000000     
   Multiplying factor =    100000000.00000000     

 all sources are okay

 Normals to surface not needed

 Node coordinates:

 reading node coordinates from interfaces...

 Mesh surfaces:
   determining acoustic free surface...
   number of acoustic elements with free surface =            0

   determining absorbing boundary surfaces...
   number of elements with absorbing boundaries =          200


 Mesh dimensions: 
   Min and max value of X in the grid =    0.0000000000000000        2000.0000000000000     
   Min and max value of Z in the grid =   -2000.0000000000000        0.0000000000000000     

 checking mesh elements for invalid Jacobians...
   number of elements:         2500
   NGNOD             :            4
   AXISYM            :  F
   all elements have valid Jacobians

 Mesh partitioning:
   decomposing mesh using NPROC =            1

 Graph construction:
   graph adjacency done

 Coupled interfaces:
 nedges_coupled (acoustic/elastic)     =            0
 nedges_coupled (acoustic/poroelastic) =            0
 nedges_coupled (poroelastic/elastic)  =            0

 Local numbering:
   NPROC:            1
   number of elements:         2500

 decompose mesh all done

 Absorbing boundaries:
   nedge_bound   :          200
   nelemabs_merge:          200

 Saving databases:
   database file: ./OUTPUT_FILES/Database00000.bin
   slice            0  has number of spectral elements =        2500

   VTK mesh files:
   written file: ./OUTPUT_FILES//mesh_materials.vtk
   written file: ./OUTPUT_FILES//mesh_partition_number.vtk
   done

 creating STATIONS file...

 writing the ./DATA/STATIONS file


 There are            1  receivers

 Target positions (x,z) of the            1  receivers

 Receiver            1  =    1500.0000000000000       -500.00000000000000     

 This will be a serial simulation


running solver...


 **********************************************
 **** Specfem 2-D Solver - MPI version     ****
 **********************************************

 Running Git version of the code corresponding to unknown
 dating unknown

 There are            1  MPI processes
 Processes are numbered from 0 to            0

 There is a total of            1  slices


 NDIM =            2

 NGLLX =            5
 NGLLZ =            5

 using single precision for the calculations

 smallest and largest possible floating-point numbers are:    1.17549435E-38   3.40282347E+38

 Reading the parameter file...

 Title of the simulation: Test for 2D P-SV elastic

 Receiver lines:
   Nb of line sets =            1

 Parameter file successfully read 

 Reading in SOURCE file...

 Source           1
   Position xs, zs =    1000.0000000000000       -1000.0000000000000     

   Source type:            2
   (1=force, 2=moment tensor)

   Moment tensor source:
   Mxx of the source =    0.0000000000000000     
   Mzz of the source =    0.0000000000000000     
   Mxz of the source =    1.0000000000000000     

   Time function type:           1
   ( 0=Normalized Gaussian,  1=Ricker,          2=First derivative,  3=Gaussian,        4=Dirac,
     5=Heaviside,            6=Ocean type I,    7=Ocean type II,     8=Read from file,  9=Burst,
    10=Sinusoidal,          11=Ormsby,         12=Brune,            13=Smoothed Brune, 14=Yoffe )
   Ricker wavelet (second-derivative):
   Frequency, delay   =    10.000000000000000        0.0000000000000000     
   Multiplying factor =    100000000.00000000     

 all sources are okay



 -------------------------------------------------------------------------------
 -------------------------------------------------------------------------------
 Program SPECFEM2D: 
 -------------------------------------------------------------------------------
 -------------------------------------------------------------------------------
 Test for 2D P-SV elastic
 -------------------------------------------------------------------------------
 -------------------------------------------------------------------------------
 D a t e : 30 - 06 - 2025                                 T i m e  : 14:56:27
 -------------------------------------------------------------------------------
 -------------------------------------------------------------------------------


 C o n t r o l
 =============

     Number of spectral element control nodes. . .(npgeo) =    2601
     Number of space dimensions. . . . . . . . . . (NDIM) =       2


 C o n t r o l
 =============

     Display frequency . . . (NTSTEP_BETWEEN_OUTPUT_INFO) =    100
     Color display . . . . . . . . . . . . . . . (colors) =      1
      == 0     black and white display              
      == 1     color display                        
     Numbered mesh . . . . . . . . . . . . . . .(numbers) =      0
      == 0     do not number the mesh               
      == 1     number the mesh                      


 C o n t r o l
 =============

     Seismograms recording type . . . . . . .(seismotype) = 1
     Angle for first line of receivers. . . . .(anglerec) =   0.00


 C o n t r o l
 =============

     Read external initial field. . . . . .(initialfield) =      F
     Add Bielak conditions (add_Bielak_conditions_bottom) =      F
     Add Bielak conditions .(add_Bielak_conditions_right) =      F
     Add Bielak conditions . .(add_Bielak_conditions_top) =      F
     Add Bielak conditions. .(add_Bielak_conditions_left) =      F
     Attenuation in solid . . .(ATTENUATION_VISCOELASTIC) =      F
     Attenuation in fluid . . (ATTENUATION_VISCOACOUSTIC) =      F
     Save grid in ASCII file or not . (output_grid_ASCII) =      F
     Save a file with total energy or not.(OUTPUT_ENERGY) =      F


 C o n t r o l
 =============

     Vector display type . . . . . . . . .(imagetype_postscript) =      1
     Percentage of cut for vector plots. . . . . . . .(cutsnaps) =   1.00
     Subsampling of velocity model display. (subsamp_postscript) =      1


 I t e r a t i o n s 
 ===================

     Number of time iterations . . . . .(NSTEP) =    1500
     Time step increment. . . . . . . . . .(DT) =   8.000000E-04
     Total simulation duration . . . . . (ttot) =   1.200000E+00


 reading mesh databases:
 reading nodal coordinates...

 -- Spectral Elements --


     Number of spectral elements . . . . . . . . .  (nspec) =   2500
     Number of control nodes per element . . . . . (NGNOD) =      4
     Number of points in X-direction . . . . . . . (NGLLX) =      5
     Number of points in Y-direction . . . . . . . (NGLLZ) =      5
     Number of points per element. . . . . . (NGLLX*NGLLZ) =     25
     Number of points for display . . . . . . (pointsdisp) =      6
     Number of element material sets . . . . . . . (numat) =      1
     Number of acoustic forcing elements (nelem_acforcing) =      0
     Number of acoustic free surf (nelem_acoustic_surface) =      0

 reading attenuation setup...
 reading material properties..


 M a t e r i a l   s e t s :   2 D  (p o r o) e l a s t i c i t y
 ======================================================

     Number of material sets . . . . . . (numat) =     1


     ----------------------------------------
     -- Elastic (solid) isotropic material --
     ----------------------------------------
     Material set number. . . . . . . . (jmat) =     1
     P-wave velocity. . . . . . . . . . . (cp) = 3.20000000E+03
     S-wave velocity. . . . . . . . . . . (cs) = 1.84750000E+03
     Mass density. . . . . . . . . . (density) = 2.20000000E+03
     Poisson's ratio. . . . . . . . .(poisson) = 2.50008469E-01
     First Lame parameter Lambda. . . (lambda) = 7.50967250E+09
     Second Lame parameter Mu. . . . . . .(mu) = 7.50916375E+09
     Bulk modulus Kappa . . . . . . . .(kappa) = 1.50188362E+10
     Young's modulus E. . . . . . . . .(young) = 1.93093717E+10
     QKappa_attenuation .  . . . . . .(QKappa) = 2.00000000E+01
     Qmu_attenuation . . . . . . . . . . (Qmu) = 1.00000000E+01

 reading interfaces informations...
   number of interfaces         =            0

 reading absorbing boundary...
   Total number of absorbing elements =          200

   any absorbing boundary flag        =  T
   PML boundary flag                  =  T
   Stacey boundary flag               =  F


 Absorbing boundaries:
   using PML boundary conditions

 reading acoustic forcing...
   acoustic forcing                             =  F
   number of acoustic forcing boundary elements =            0

 reading free surface information...
   number of acoustic free surface boundary elements =            0

 reading coupling surfaces...
   number of fluid-solid edges  =            0
   number of fluid-poro  edges  =            0
   number of solid-poro  edges  =            0

 reading tangential curves...
   number of tangential curve nodes =            0

 reading axial elements...
   number of axial elements     =            0

 done reading mesh databases


 Setting up mesh

 Generating global mesh numbering (fast version)...

 Mesh numbering:
   Total number of elements:         2500

   Total number of acoustic elements           =            0
   Total number of elastic/visco/poro elements =         2500

 Approximate total number of grid points in the mesh
 (with a few duplicates coming from MPI buffers):        40401

 Approximate number of acoustic degrees of freedom in the mesh:            0
 Approximate number of elastic degrees of freedom in the mesh:        80802
   (there are 2 degrees of freedom per point for elastic elements)

 Approximate total number of degrees of freedom in the mesh
 (sum of the two values above):        80802

  (for simplicity viscoelastic or poroelastic elements, if any,
   are counted as elastic in the above three estimates;
   in reality they have more degrees of freedom)

 Mesh dimensions:
   Xmin,Xmax of the whole mesh =    0.0000000000000000        2000.0000000000000     
   Zmin,Zmax of the whole mesh =   -2000.0000000000000        0.0000000000000000     

 Material properties:
   MODEL                   : default
   nspec                   :         2500
   external velocity model :  F

   setting up material arrays
   elasticitiy:
     rho : min/max =    2200.00000     /   2200.00000    
     vs  : min/max =    1847.50000     /   1847.50000    
     vp  : min/max =    3200.00000     /   3200.00000    

   all material arrays done

   written file: ./OUTPUT_FILES/mesh00000_vs.vtk
   written file: ./OUTPUT_FILES/mesh00000_vp.vtk
   written file: ./OUTPUT_FILES/mesh00000_rho.vtk

 Domains:
   total number of acoustic elements        =            0
   total number of elastic elements         =         2500
   total number of poroelastic elements     =            0
   total number of electromagnetic elements =            0

 Setting up MPI communication arrays

   maximum number of MPI interfaces (for a single slice) =            0

   This is a single process simulation, no need for MPI communication

   number of outer elements  =            0
   number of inner elements  =         2500

   percentage of outer elements    0.00000000     %
   percentage of inner elements    100.000000     %

   number of global nodes in outer elements  =            0
   number of global nodes in inner elements  =        40401

   determining communication phases:
   elastic domains:
   total number of outer/inner elements =            0        2500
   total percentage of outer elements    0.00000000     %
   total percentage of inner elements    100.000000     %

 All mesh setup done successfully

 Sources
 =======

   Total number of sources:            1

   Setting parameters for source           1

     Source Type. . . . . . . . . . . . . . = Moment-tensor
     X-position (meters). . . . . . . . . . =    1.0000000000E+03
     Y-position (meters). . . . . . . . . . =   -1.0000000000E+03
     Fundamental frequency (Hz) . . . . . . =    1.0000000000E+01
     Time delay (s) . . . . . . . . . . . . =    0.0000000000E+00
     Multiplying factor . . . . . . . . . . =    1.0000000000E+08
     Mxx. . . . . . . . . . . . . . . . . . =    0.0000000000E+00
     Mzz. . . . . . . . . . . . . . . . . . =    0.0000000000E+00
     Mxz. . . . . . . . . . . . . . . . . . =    1.0000000000E+00

     Source time function
     Ricker wavelet (second-derivative)

     2D seismic moment M0 =    10000000.0     (dyne-cm)
         moment magnitude =   -6.03333330    

 determining source onset times...
   simulation start time t0 =  -0.12000000000000000       s

   Source:            1
     Onset time. . . . . . =  -0.12000000000000000     
     Fundamental period. . =   0.10000000000000001     
     Fundamental frequency =    10.000000000000000     
     The onset time is ok

 Source:            1
 *******************************
  locating moment-tensor source
 *******************************

 Moment-tensor source:
             original x:    1000.00000    
             original z:   -1000.00000    
 Closest estimate found:    0.00000000      m away
  in rank            0
  in element         1225
  in elastic domain
  at xi,gamma coordinates =    1.0000000000000000        1.0000000000000000     


 end of moment-tensor source detection


 receivers:

 Total number of receivers =            1


 ********************
  locating receivers
 ********************

 reading receiver information from the ./DATA/STATIONS file


 Station #            1     AA      S0001                           
             original x:    1500.00000    
             original z:   -500.000000    
 Closest estimate found:    0.00000000      m away
  in rank            0
  in element         1888
  in elastic domain
  at xi,gamma coordinates =    0.0000000000000000        0.0000000000000000     
 Distance from source:    707.106812      m

 maximum error in location of all the receivers:    0.00000000      m

 end of receiver detection

 found a total of            1  receivers, this is okay


 Preparing timerun:

 Movie simulation:
   postscript snapshots - PS image type  :            1
   color images         - JPEG image type:            1
   number of steps between outputs       :          100

 Preparing image coloring: postscripts
   allocating postscript image arrays

 Preparing image coloring: jpeg
   allocating color image arrays
   locating all the pixels of color images
   total number of image pixels =       580643
   done locating all the pixels of color images
   coloring image background based on velocity

 Checking mesh and stability

 ********
 Model: P (or PI) velocity min,max =    3200.0000000000000        3200.0000000000000     
 Model: S velocity min,max         =    1847.4999717062367        1847.4999717062367     
 Model: density min,max            =    2200.0000000000000        2200.0000000000000     
 ********


 *********************************************
 *** Verification of simulation parameters ***
 *********************************************

 *** Max grid size =    40.000000000000227     
 *** Min grid size =    39.999999999999773     
 *** Max/min ratio =    1.0000000000000113     

 *** Minimum GLL point distance  =    6.9069265858404165     
 *** Average GLL point distance  =    9.9999999999999432     

 *** Minimum period resolved     =    2.7063599873196953E-002
 *** Maximum frequency resolved  =    36.949999434124528      Hz

 *** Maximum suggested time step                 =    1.0792072790375652E-003
 *** Maximum suggested (Ricker) source frequency =    14.779999773649813     

 *** for DT :    7.99999980E-04
 *** Max CFL stability condition of the time scheme based on P wave velocity (must be below about 0.50 or so) =   0.37064242223858906     

 ----
 Number of points per wavelength:
 ----
   Source            1
   maximum dominant source frequency =    25.000000000000000      Hz


   Nb pts / lambdaP_fmax min =    12.8000002    
   Nb pts / lambdaP_fmax max =    12.8000002    

   Nb pts / lambdaS_fmax min =    7.38999987    
   Nb pts / lambdaS_fmax max =    7.38999987    

 -----------------------------------------

 histogram of min number of points per S wavelength in solid regions:

 there are         2500  elements out of         2500  in solid regions
   (i.e.,    100.000000     % of the total)

 (too small = poor resolution of calculations -
  too big = wasting memory and CPU time)
 (threshold value is around 4.5 points per S wavelength
  in elastic regions and 5.5 per P wavelength in fluid regions):

   7.31610012      -    7.32348967               0     0.00000000      %
   7.32348967      -    7.33087969               0     0.00000000      %
   7.33087969      -    7.33826971               0     0.00000000      %
   7.33826971      -    7.34565973               0     0.00000000      %
   7.34565973      -    7.35304976               0     0.00000000      %
   7.35304976      -    7.36043978               0     0.00000000      %
   7.36043978      -    7.36782980               0     0.00000000      %
   7.36782980      -    7.37521982               0     0.00000000      %
   7.37521982      -    7.38260984               0     0.00000000      %
   7.38260984      -    7.38999987             150     6.00000000      %
   7.38999987      -    7.39738989            2350     94.0000000      %
   7.39738989      -    7.40477991               0     0.00000000      %
   7.40477991      -    7.41216993               0     0.00000000      %
   7.41216993      -    7.41955996               0     0.00000000      %
   7.41955996      -    7.42694998               0     0.00000000      %
   7.42694998      -    7.43434000               0     0.00000000      %
   7.43434000      -    7.44173002               0     0.00000000      %
   7.44173002      -    7.44912004               0     0.00000000      %
   7.44912004      -    7.45651007               0     0.00000000      %
   7.45651007      -    7.46390009               0     0.00000000      %

 total percentage =    100.00000000000000       %


 total number of elements in fluid and solid regions =         2500


 Creating PostScript file with stability condition
 End of creation of PostScript file with stability condition

 Creating PostScript file with mesh dispersion
 End of creation of PostScript file with mesh dispersion

 Creating PostScript file with velocity model
 End of creation of PostScript file with velocity model

 Creating PostScript file with mesh partitioning
 End of creation of PostScript file with partitioning

 mesh resolution output files:
   written file: ./OUTPUT_FILES/mesh00000_res_minimum_period.vtk
   written file: ./OUTPUT_FILES/mesh00000_res_dt_suggested.vtk

 Preparing timerun constants

 Preparing array allocations
   arrays for elastic domains
   done initialization


 Preparing PML
   rotate PML activated   : F
   backward reconstruction: F
   total number of PML spectral elements:          564

   number of points on acoustic abs in this slice =            0
   number of points on  elastic abs in this slice =          800

   defining PML coefficients:
     using mesh dimension : xmin/xmax =    0.00000000     /   2000.00000    
                            zmin/zmax =   -2000.00000     /   0.00000000    
     thickness PML: left   =    120.000000    
                    right  =    120.000000    
                    bottom =    120.000000    
                    top    =    120.000000    
     maximum dominant frequency (sources):    10.0000000    
     PML coefficients all set

 Attenuation:
   viscoelastic  attenuation:  F (shear & bulk attenuation in elastic domains)
   viscoacoustic attenuation:  F (bulk attenuation in acoustic domains)
   poro-fluid    attenuation:  F (viscous attenuation in poroelastic domains)
   permittivity  attenuation:  F (for electromagnetic materials)

 Preparing mass matrices
   initializing mass matrices
   inverting mass matrices


 Preparing source time function
   time stepping scheme:   Newmark
   time stepping stages:            1
   time step size      :    7.99999980E-04

   number of time steps:         1500
   number of sources   :            1

   saving the source time function in a text file...

 preparing optimized arrays
   fused array done

 Elapsed time for preparing timerun in seconds =   0.10146100000000002     

 ************
  time loop
 ************
               scheme:         Newmark

            time step:    7.99999980E-04  s
 number of time steps:         1500
 total simulated time:    1.20000005      seconds
 start time: -0.119999997      seconds


 =========================================
 =  T i m e  e v o l u t i o n  l o o p  =
 =========================================


 Starting time iteration loop ...


 ******************************************************************
 Time step #       5 out of    1500
 ******************************************************************
 Time: -1.168000E-01 s
 We have done   0.266844571     % of the total
 Max norm of vector field in solid (elastic) =    3.91381896E-08
 Elapsed time in seconds =    7.9998970031738281E-003
 Elapsed time in hh:mm:ss =      0 h 00 m 00 s
 Mean elapsed time per time step in seconds =    1.5999794006347657E-003
 Time steps remaining =         1495
 Estimated remaining time in seconds =    2.3919692039489746     
 Estimated remaining time in hh:mm:ss =      0 h 00 m 02 s
 Estimated total run time in seconds =    2.3999691009521484     
 Estimated total run time in hh:mm:ss =      0 h 00 m 02 s
 The run will finish approximately on: Mon Jun 30, 2025 14:57


 Writing PostScript vector plot for time step            5
 drawing displacement vector as small arrows...
   X min, max =    0.0000000000000000        2000.0000000000000     
   Z min, max =   -2000.0000000000000        0.0000000000000000     
   Max norm =    4.2077194185130951E-008
   Interpolating the vector field...
   Interpolation uniform grid element         1000  on processor core 0
   Interpolation uniform grid element         2000  on processor core 0
 PostScript file written

 Creating color image of size          763  x          800  for time step            5
 drawing scalar image of the forward wavefield displacement...
 Color image maximum amplitude =    2.9753069341609262E-008
 Color image created


 ******************************************************************
 Time step #     100 out of    1500
 ******************************************************************
 Time: -4.080000E-02 s
 We have done    6.60440302     % of the total
 Max norm of vector field in solid (elastic) =    4.50066553E-04
 Elapsed time in seconds =   0.21700000762939453     
 Elapsed time in hh:mm:ss =      0 h 00 m 00 s
 Mean elapsed time per time step in seconds =    2.1700000762939452E-003
 Time steps remaining =         1400
 Estimated remaining time in seconds =    3.0380001068115234     
 Estimated remaining time in hh:mm:ss =      0 h 00 m 03 s
 Estimated total run time in seconds =    3.2550001144409180     
 Estimated total run time in hh:mm:ss =      0 h 00 m 03 s
 The run will finish approximately on: Mon Jun 30, 2025 14:57


 Writing PostScript vector plot for time step          100
 drawing displacement vector as small arrows...
   X min, max =    0.0000000000000000        2000.0000000000000     
   Z min, max =   -2000.0000000000000        0.0000000000000000     
   Max norm =    4.5462729180021207E-004
   Interpolating the vector field...
   Interpolation uniform grid element         1000  on processor core 0
   Interpolation uniform grid element         2000  on processor core 0
 PostScript file written

 Creating color image of size          763  x          800  for time step          100
 drawing scalar image of the forward wavefield displacement...
 Color image maximum amplitude =    3.2147005549632013E-004
 Color image created


 ******************************************************************
 Time step #     200 out of    1500
 ******************************************************************
 Time:    0.0392 s
 We have done    13.2755175     % of the total
 Max norm of vector field in solid (elastic) =    4.58435155E-04
 Elapsed time in seconds =   0.43199992179870605     
 Elapsed time in hh:mm:ss =      0 h 00 m 00 s
 Mean elapsed time per time step in seconds =    2.1599996089935302E-003
 Time steps remaining =         1300
 Estimated remaining time in seconds =    2.8079994916915894     
 Estimated remaining time in hh:mm:ss =      0 h 00 m 02 s
 Estimated total run time in seconds =    3.2399994134902954     
 Estimated total run time in hh:mm:ss =      0 h 00 m 03 s
 The run will finish approximately on: Mon Jun 30, 2025 14:57


 Writing PostScript vector plot for time step          200
 drawing displacement vector as small arrows...
   X min, max =    0.0000000000000000        2000.0000000000000     
   Z min, max =   -2000.0000000000000        0.0000000000000000     
   Max norm =    4.5868631319323071E-004
   Interpolating the vector field...
   Interpolation uniform grid element         1000  on processor core 0
   Interpolation uniform grid element         2000  on processor core 0
 PostScript file written

 Creating color image of size          763  x          800  for time step          200
 drawing scalar image of the forward wavefield displacement...
 Color image maximum amplitude =    3.2434015884064138E-004
 Color image created


 ******************************************************************
 Time step #     300 out of    1500
 ******************************************************************
 Time:    0.1192 s
 We have done    19.9466305     % of the total
 Max norm of vector field in solid (elastic) =    3.19122810E-05
 Elapsed time in seconds =   0.65599989891052246     
 Elapsed time in hh:mm:ss =      0 h 00 m 00 s
 Mean elapsed time per time step in seconds =    2.1866663297017415E-003
 Time steps remaining =         1200
 Estimated remaining time in seconds =    2.6239995956420898     
 Estimated remaining time in hh:mm:ss =      0 h 00 m 02 s
 Estimated total run time in seconds =    3.2799994945526123     
 Estimated total run time in hh:mm:ss =      0 h 00 m 03 s
 The run will finish approximately on: Mon Jun 30, 2025 14:57


 Writing PostScript vector plot for time step          300
 drawing displacement vector as small arrows...
   X min, max =    0.0000000000000000        2000.0000000000000     
   Z min, max =   -2000.0000000000000        0.0000000000000000     
   Max norm =    3.2167259651872620E-005
   Interpolating the vector field...
   Interpolation uniform grid element         1000  on processor core 0
   Interpolation uniform grid element         2000  on processor core 0
 PostScript file written

 Creating color image of size          763  x          800  for time step          300
 drawing scalar image of the forward wavefield displacement...
 Color image maximum amplitude =    3.2167259632842615E-005
 Color image created


 ******************************************************************
 Time step #     400 out of    1500
 ******************************************************************
 Time:    0.1992 s
 We have done    26.6177444     % of the total
 Max norm of vector field in solid (elastic) =    2.55766354E-05
 Elapsed time in seconds =   0.96399998664855957     
 Elapsed time in hh:mm:ss =      0 h 00 m 00 s
 Mean elapsed time per time step in seconds =    2.4099999666213987E-003
 Time steps remaining =         1100
 Estimated remaining time in seconds =    2.6509999632835384     
 Estimated remaining time in hh:mm:ss =      0 h 00 m 02 s
 Estimated total run time in seconds =    3.6149999499320979     
 Estimated total run time in hh:mm:ss =      0 h 00 m 03 s
 The run will finish approximately on: Mon Jun 30, 2025 14:57


 Writing PostScript vector plot for time step          400
 drawing displacement vector as small arrows...
   X min, max =    0.0000000000000000        2000.0000000000000     
   Z min, max =   -2000.0000000000000        0.0000000000000000     
   Max norm =    2.5512417778568094E-005
   Interpolating the vector field...
   Interpolation uniform grid element         1000  on processor core 0
   Interpolation uniform grid element         2000  on processor core 0
 PostScript file written

 Creating color image of size          763  x          800  for time step          400
 drawing scalar image of the forward wavefield displacement...
 Color image maximum amplitude =    2.5512417778372765E-005
 Color image created


 ******************************************************************
 Time step #     500 out of    1500
 ******************************************************************
 Time:    0.2792 s
 We have done    33.2888603     % of the total
 Max norm of vector field in solid (elastic) =    2.15364144E-05
 Elapsed time in seconds =    1.3569998741149902     
 Elapsed time in hh:mm:ss =      0 h 00 m 01 s
 Mean elapsed time per time step in seconds =    2.7139997482299805E-003
 Time steps remaining =         1000
 Estimated remaining time in seconds =    2.7139997482299805     
 Estimated remaining time in hh:mm:ss =      0 h 00 m 02 s
 Estimated total run time in seconds =    4.0709996223449707     
 Estimated total run time in hh:mm:ss =      0 h 00 m 04 s
 The run will finish approximately on: Mon Jun 30, 2025 14:57


 Writing PostScript vector plot for time step          500
 drawing displacement vector as small arrows...
   X min, max =    0.0000000000000000        2000.0000000000000     
   Z min, max =   -2000.0000000000000        0.0000000000000000     
   Max norm =    2.1366515284185165E-005
   Interpolating the vector field...
   Interpolation uniform grid element         1000  on processor core 0
   Interpolation uniform grid element         2000  on processor core 0
 PostScript file written

 Creating color image of size          763  x          800  for time step          500
 drawing scalar image of the forward wavefield displacement...
 Color image maximum amplitude =    2.1366515284171328E-005
 Color image created


 ******************************************************************
 Time step #     600 out of    1500
 ******************************************************************
 Time:    0.3592 s
 We have done    39.9599724     % of the total
 Max norm of vector field in solid (elastic) =    1.88204340E-05
 Elapsed time in seconds =    1.8059999942779541     
 Elapsed time in hh:mm:ss =      0 h 00 m 01 s
 Mean elapsed time per time step in seconds =    3.0099999904632567E-003
 Time steps remaining =          900
 Estimated remaining time in seconds =    2.7089999914169312     
 Estimated remaining time in hh:mm:ss =      0 h 00 m 02 s
 Estimated total run time in seconds =    4.5149999856948853     
 Estimated total run time in hh:mm:ss =      0 h 00 m 04 s
 The run will finish approximately on: Mon Jun 30, 2025 14:57


 Writing PostScript vector plot for time step          600
 drawing displacement vector as small arrows...
   X min, max =    0.0000000000000000        2000.0000000000000     
   Z min, max =   -2000.0000000000000        0.0000000000000000     
   Max norm =    1.8939092115034655E-005
   Interpolating the vector field...
   Interpolation uniform grid element         1000  on processor core 0
   Interpolation uniform grid element         2000  on processor core 0
 PostScript file written

 Creating color image of size          763  x          800  for time step          600
 drawing scalar image of the forward wavefield displacement...
 Color image maximum amplitude =    1.8939092115033418E-005
 Color image created


 ******************************************************************
 Time step #     700 out of    1500
 ******************************************************************
 Time:    0.4392 s
 We have done    46.6310883     % of the total
 Max norm of vector field in solid (elastic) =    1.68781826E-05
 Elapsed time in seconds =    2.2099997997283936     
 Elapsed time in hh:mm:ss =      0 h 00 m 02 s
 Mean elapsed time per time step in seconds =    3.1571425710405624E-003
 Time steps remaining =          800
 Estimated remaining time in seconds =    2.5257140568324501     
 Estimated remaining time in hh:mm:ss =      0 h 00 m 02 s
 Estimated total run time in seconds =    4.7357138565608441     
 Estimated total run time in hh:mm:ss =      0 h 00 m 04 s
 The run will finish approximately on: Mon Jun 30, 2025 14:57


 Writing PostScript vector plot for time step          700
 drawing displacement vector as small arrows...
   X min, max =    0.0000000000000000        2000.0000000000000     
   Z min, max =   -2000.0000000000000        0.0000000000000000     
   Max norm =    1.6743422197369942E-005
   Interpolating the vector field...
   Interpolation uniform grid element         1000  on processor core 0
   Interpolation uniform grid element         2000  on processor core 0
 PostScript file written

 Creating color image of size          763  x          800  for time step          700
 drawing scalar image of the forward wavefield displacement...
 Color image maximum amplitude =    1.6660842447890900E-005
 Color image created


 ******************************************************************
 Time step #     800 out of    1500
 ******************************************************************
 Time:    0.5192 s
 We have done    53.3022003     % of the total
 Max norm of vector field in solid (elastic) =    1.10866067E-05
 Elapsed time in seconds =    2.5759999752044678     
 Elapsed time in hh:mm:ss =      0 h 00 m 02 s
 Mean elapsed time per time step in seconds =    3.2199999690055848E-003
 Time steps remaining =          700
 Estimated remaining time in seconds =    2.2539999783039093     
 Estimated remaining time in hh:mm:ss =      0 h 00 m 02 s
 Estimated total run time in seconds =    4.8299999535083771     
 Estimated total run time in hh:mm:ss =      0 h 00 m 04 s
 The run will finish approximately on: Mon Jun 30, 2025 14:57


 Writing PostScript vector plot for time step          800
 drawing displacement vector as small arrows...
   X min, max =    0.0000000000000000        2000.0000000000000     
   Z min, max =   -2000.0000000000000        0.0000000000000000     
   Max norm =    1.1008720190585681E-005
   Interpolating the vector field...
   Interpolation uniform grid element         1000  on processor core 0
   Interpolation uniform grid element         2000  on processor core 0
 PostScript file written

 Creating color image of size          763  x          800  for time step          800
 drawing scalar image of the forward wavefield displacement...
 Color image maximum amplitude =    9.0358098532306030E-006
 Color image created


 ******************************************************************
 Time step #     900 out of    1500
 ******************************************************************
 Time:    0.5992 s
 We have done    59.9733162     % of the total
 Max norm of vector field in solid (elastic) =    4.57623446E-06
 Elapsed time in seconds =    2.9299998283386230     
 Elapsed time in hh:mm:ss =      0 h 00 m 02 s
 Mean elapsed time per time step in seconds =    3.2555553648206921E-003
 Time steps remaining =          600
 Estimated remaining time in seconds =    1.9533332188924153     
 Estimated remaining time in hh:mm:ss =      0 h 00 m 01 s
 Estimated total run time in seconds =    4.8833330472310381     
 Estimated total run time in hh:mm:ss =      0 h 00 m 04 s
 The run will finish approximately on: Mon Jun 30, 2025 14:57


 Writing PostScript vector plot for time step          900
 drawing displacement vector as small arrows...
   X min, max =    0.0000000000000000        2000.0000000000000     
   Z min, max =   -2000.0000000000000        0.0000000000000000     
   Max norm =    4.5258529773834858E-006
   Interpolating the vector field...
   Interpolation uniform grid element         1000  on processor core 0
   Interpolation uniform grid element         2000  on processor core 0
 PostScript file written

 Creating color image of size          763  x          800  for time step          900
 drawing scalar image of the forward wavefield displacement...
 Color image maximum amplitude =    3.3069247820094461E-006
 Color image created


 ******************************************************************
 Time step #    1000 out of    1500
 ******************************************************************
 Time:    0.6792 s
 We have done    66.6444321     % of the total
 Max norm of vector field in solid (elastic) =    1.43739510E-06
 Elapsed time in seconds =    3.2599999904632568     
 Elapsed time in hh:mm:ss =      0 h 00 m 03 s
 Mean elapsed time per time step in seconds =    3.2599999904632570E-003
 Time steps remaining =          500
 Estimated remaining time in seconds =    1.6299999952316284     
 Estimated remaining time in hh:mm:ss =      0 h 00 m 01 s
 Estimated total run time in seconds =    4.8899999856948853     
 Estimated total run time in hh:mm:ss =      0 h 00 m 04 s
 The run will finish approximately on: Mon Jun 30, 2025 14:57


 Total number of time steps done:         1000
 Writing the seismograms by main proc alone took    3.27700004E-03  seconds


 Writing PostScript vector plot for time step         1000
 drawing displacement vector as small arrows...
   X min, max =    0.0000000000000000        2000.0000000000000     
   Z min, max =   -2000.0000000000000        0.0000000000000000     
   Max norm =    1.4184872788762249E-006
   Interpolating the vector field...
   Interpolation uniform grid element         1000  on processor core 0
   Interpolation uniform grid element         2000  on processor core 0
 PostScript file written

 Creating color image of size          763  x          800  for time step         1000
 drawing scalar image of the forward wavefield displacement...
 Color image maximum amplitude =    5.8526183011053945E-007
 Color image created


 ******************************************************************
 Time step #    1100 out of    1500
 ******************************************************************
 Time:    0.7592 s
 We have done    73.3155441     % of the total
 Max norm of vector field in solid (elastic) =    8.62808491E-08
 Elapsed time in seconds =    3.5569999217987061     
 Elapsed time in hh:mm:ss =      0 h 00 m 03 s
 Mean elapsed time per time step in seconds =    3.2336362925442781E-003
 Time steps remaining =          400
 Estimated remaining time in seconds =    1.2934545170177112     
 Estimated remaining time in hh:mm:ss =      0 h 00 m 01 s
 Estimated total run time in seconds =    4.8504544388164170     
 Estimated total run time in hh:mm:ss =      0 h 00 m 04 s
 The run will finish approximately on: Mon Jun 30, 2025 14:57


 Writing PostScript vector plot for time step         1100
 drawing displacement vector as small arrows...
   X min, max =    0.0000000000000000        2000.0000000000000     
   Z min, max =   -2000.0000000000000        0.0000000000000000     
   Max norm =    8.4486800183697091E-008
   Interpolating the vector field...
   Interpolation uniform grid element         1000  on processor core 0
   Interpolation uniform grid element         2000  on processor core 0
 PostScript file written

 Creating color image of size          763  x          800  for time step         1100
 drawing scalar image of the forward wavefield displacement...
 Color image maximum amplitude =    2.6774014116881517E-008
 Color image created


 ******************************************************************
 Time step #    1200 out of    1500
 ******************************************************************
 Time:    0.8392 s
 We have done    79.9866562     % of the total
 Max norm of vector field in solid (elastic) =    7.78462006E-09
 Elapsed time in seconds =    4.0539999008178711     
 Elapsed time in hh:mm:ss =      0 h 00 m 04 s
 Mean elapsed time per time step in seconds =    3.3783332506815591E-003
 Time steps remaining =          300
 Estimated remaining time in seconds =    1.0134999752044678     
 Estimated remaining time in hh:mm:ss =      0 h 00 m 01 s
 Estimated total run time in seconds =    5.0674998760223389     
 Estimated total run time in hh:mm:ss =      0 h 00 m 05 s
 The run will finish approximately on: Mon Jun 30, 2025 14:57


 Writing PostScript vector plot for time step         1200
 drawing displacement vector as small arrows...
   X min, max =    0.0000000000000000        2000.0000000000000     
   Z min, max =   -2000.0000000000000        0.0000000000000000     
   Max norm =    7.8009599813308813E-009
   Interpolating the vector field...
   Interpolation uniform grid element         1000  on processor core 0
   Interpolation uniform grid element         2000  on processor core 0
 PostScript file written

 Creating color image of size          763  x          800  for time step         1200
 drawing scalar image of the forward wavefield displacement...
 Color image maximum amplitude =    7.7986896940274164E-009
 Color image created


 ******************************************************************
 Time step #    1300 out of    1500
 ******************************************************************
 Time:    0.9192 s
 We have done    86.6577682     % of the total
 Max norm of vector field in solid (elastic) =    9.50542756E-09
 Elapsed time in seconds =    4.5909998416900635     
 Elapsed time in hh:mm:ss =      0 h 00 m 04 s
 Mean elapsed time per time step in seconds =    3.5315383397615872E-003
 Time steps remaining =          200
 Estimated remaining time in seconds =   0.70630766795231748     
 Estimated remaining time in hh:mm:ss =      0 h 00 m 00 s
 Estimated total run time in seconds =    5.2973075096423807     
 Estimated total run time in hh:mm:ss =      0 h 00 m 05 s
 The run will finish approximately on: Mon Jun 30, 2025 14:57


 Writing PostScript vector plot for time step         1300
 drawing displacement vector as small arrows...
   X min, max =    0.0000000000000000        2000.0000000000000     
   Z min, max =   -2000.0000000000000        0.0000000000000000     
   Max norm =    9.1512321503855347E-009
   Interpolating the vector field...
   Interpolation uniform grid element         1000  on processor core 0
   Interpolation uniform grid element         2000  on processor core 0
 PostScript file written

 Creating color image of size          763  x          800  for time step         1300
 drawing scalar image of the forward wavefield displacement...
 Color image maximum amplitude =    6.4981229286331654E-009
 Color image created


 ******************************************************************
 Time step #    1400 out of    1500
 ******************************************************************
 Time:    0.9992 s
 We have done    93.3288879     % of the total
 Max norm of vector field in solid (elastic) =    1.35995801E-08
 Elapsed time in seconds =    5.1250000000000000     
 Elapsed time in hh:mm:ss =      0 h 00 m 05 s
 Mean elapsed time per time step in seconds =    3.6607142857142858E-003
 Time steps remaining =          100
 Estimated remaining time in seconds =   0.36607142857142860     
 Estimated remaining time in hh:mm:ss =      0 h 00 m 00 s
 Estimated total run time in seconds =    5.4910714285714288     
 Estimated total run time in hh:mm:ss =      0 h 00 m 05 s
 The run will finish approximately on: Mon Jun 30, 2025 14:57


 Writing PostScript vector plot for time step         1400
 drawing displacement vector as small arrows...
   X min, max =    0.0000000000000000        2000.0000000000000     
   Z min, max =   -2000.0000000000000        0.0000000000000000     
   Max norm =    1.3501803503694808E-008
   Interpolating the vector field...
   Interpolation uniform grid element         1000  on processor core 0
   Interpolation uniform grid element         2000  on processor core 0
 PostScript file written

 Creating color image of size          763  x          800  for time step         1400
 drawing scalar image of the forward wavefield displacement...
 Color image maximum amplitude =    9.6660359716338462E-009
 Color image created


 ******************************************************************
 Time step #    1500 out of    1500
 ******************************************************************
 Time:    1.0792 s
 We have done    100.000000     % of the total
 Max norm of vector field in solid (elastic) =    6.90086210E-09
 Elapsed time in seconds =    5.6569998264312744     
 Elapsed time in hh:mm:ss =      0 h 00 m 05 s
 Mean elapsed time per time step in seconds =    3.7713332176208497E-003
 Time steps remaining =            0
 Estimated remaining time in seconds =    0.0000000000000000     
 Estimated remaining time in hh:mm:ss =      0 h 00 m 00 s
 Estimated total run time in seconds =    5.6569998264312744     
 Estimated total run time in hh:mm:ss =      0 h 00 m 05 s


 Total number of time steps done:         1500
 Writing the seismograms by main proc alone took    7.12099997E-03  seconds


 Writing PostScript vector plot for time step         1500
 drawing displacement vector as small arrows...
   X min, max =    0.0000000000000000        2000.0000000000000     
   Z min, max =   -2000.0000000000000        0.0000000000000000     
   Max norm =    6.8742000962686389E-009
   Interpolating the vector field...
   Interpolation uniform grid element         1000  on processor core 0
   Interpolation uniform grid element         2000  on processor core 0
 PostScript file written

 Creating color image of size          763  x          800  for time step         1500
 drawing scalar image of the forward wavefield displacement...
 Color image maximum amplitude =    5.2942268347067056E-009
 Color image created


 Time loop finished. Timing info:
 Total duration of the time loop in seconds  =    6.00725603      s
 Total duration of the time loop in hh:mm:ss =      0 h 00 m 06 s

 Total number of time steps =         1500
 Average duration of a time step of the time loop =    4.00483748E-03  s

 Total number of spectral elements in the mesh =         2500
     of which         1936  are regular elements
     and          564  are PML elements.
 Average duration of the calculation per spectral element =    1.60193497E-06  s


 Total duration of the timeloop measured using date and time of the system
     in seconds     =    6.00799990      s
     in in hh:mm:ss =      0 h 00 m 06 s



 -------------------------------------------------------------------------------
 -------------------------------------------------------------------------------
 Program SPECFEM2D: 
 -------------------------------------------------------------------------------
 -------------------------------------------------------------------------------
 Test for 2D P-SV elastic
 -------------------------------------------------------------------------------
 -------------------------------------------------------------------------------
 D a t e : 30 - 06 - 2025                                 T i m e  : 14:56:33
 -------------------------------------------------------------------------------
 -------------------------------------------------------------------------------

see results in directory: OUTPUT_FILES/

done
Mon Jun 30 14:56:33 CEST 2025
