running example: Fri Jul  4 13:00:29 CEST 2025

setting up example...


running mesher on 4 processors...


 **********************************************
 *** Specfem 2-D Mesher - MPI version       ***
 **********************************************

 Running Git version of the code corresponding to unknown
 dating unknown

 Reading the parameter file...

 Title of the simulation: Axisymmetric simulation

 Axisymmetric simulation

 Receiver lines:
   Nb of line sets =            3

 Parameter file successfully read 


 Mesh from internal meshing:
   Materials:
   Nb of solid, fluid or porous materials =            1

 --------
 Material #           1  isotropic
 rho,cp,cs   =    2500.0000000000000        3400.0000000000000        1963.0000000000000     
 Qkappa, Qmu =    9999.0000000000000        9999.0000000000000     
 Material is solid
 --------

 Reading interface data from file: ./DATA/./interfaces.dat
 Reading            2  points for interface            1
 Reading            2  points for interface            2

 Total number of layers in z direction =            1
 There are          120  spectral elements along Z in layer            1

 Total number of spectral elements along X =          160
 Total number of spectral elements along Z =          120

 Regions:
   Nb of regions in the mesh =            1

 ------
 Region            1
 IX from            1  to          160
 IZ from            1  to          120
 Material #            1  isotropic
 Material is solid
 vp     =    3400.00000    
 vs     =    1963.00000    
 rho    =    2500.00000    
 Poisson's ratio =   0.249996528    
 QKappa =    9999.00000    
 Qmu    =    9999.00000    
 ------

 creating mesh from internal meshing:
   Total number of spectral elements         =        19200

 PML mesh elements:
   using internal mesh, PML elements will be determined in solver run...

 The mesh contains        19200  elements

 Control elements have            4  nodes

 Reading in SOURCE file...

 Source           1
   Position xs, zs =    0.0000000000000000        2500.0000000000000     

   Source type:            1
   (1=force, 2=moment tensor)

   Force source:
   Angle of the source (deg) =    0.0000000000000000     

   Time function type:           1
   ( 0=Normalized Gaussian,  1=Ricker,          2=First derivative,  3=Gaussian,        4=Dirac,
     5=Heaviside,            6=Ocean type I,    7=Ocean type II,     8=Read from file,  9=Burst,
    10=Sinusoidal,          11=Ormsby,         12=Brune,            13=Smoothed Brune, 14=Yoffe,
    15=Integrated Yoffe )
   Ricker wavelet (second-derivative):
   Frequency, delay   =    3.0000000000000000        0.0000000000000000     
   Multiplying factor =    1.0000000000000000     

 all sources are okay

 Normals to surface not needed

 Node coordinates:

 reading node coordinates from interfaces...

 Mesh surfaces:
   determining acoustic free surface...
   number of acoustic elements with free surface =            0

   determining absorbing boundary surfaces...
   number of elements with absorbing boundaries =          440

 Axisymmetric mesh:

 Axial elements:          120


 Mesh dimensions: 
   Min and max value of X in the grid =    0.0000000000000000        6400.0000000000000     
   Min and max value of Z in the grid =    0.0000000000000000        4800.0000000000000     

 checking mesh elements for invalid Jacobians...
   number of elements:        19200
   NGNOD             :            4
   AXISYM            :  T
   all elements have valid Jacobians

 Mesh partitioning:
   decomposing mesh using NPROC =            4

 Graph construction:
   graph adjacency done

 ************ Computing elements load ************
 Number of elastic elements :       17050
 Number of acoustic elements :           0
 Number of viscoelastic elements :           0
 Number of viscoacoustic elements :           0
 Number of elastic PML elements :        2150
 Number of acoustic PML elements :           0
 Number of viscoelastic PML elements :           0
 Number of viscoacoustic PML elements :           0
 *************************************************


 Partitioning type: SCOTCH

 Coupled interfaces:
 nedges_coupled (acoustic/elastic)     =            0
 nedges_coupled (acoustic/poroelastic) =            0
 nedges_coupled (poroelastic/elastic)  =            0

 Local numbering:
   NPROC:            4
   number of elements:        19200

 decompose mesh all done

 Absorbing boundaries:
   nedge_bound   :          440
   nelemabs_merge:          440

 Saving databases:
   database file: ./OUTPUT_FILES/Database00000.bin
   slice            0  has number of spectral elements =        4080

   database file: ./OUTPUT_FILES/Database00001.bin
   slice            1  has number of spectral elements =        4080

   database file: ./OUTPUT_FILES/Database00002.bin
   slice            2  has number of spectral elements =        5520

   database file: ./OUTPUT_FILES/Database00003.bin
   slice            3  has number of spectral elements =        5520

   VTK mesh files:
   written file: ./OUTPUT_FILES//mesh_materials.vtk
   written file: ./OUTPUT_FILES//mesh_partition_number.vtk
   done

 creating STATIONS file...

 writing the ./DATA/STATIONS file


 There are            3  receivers

 Target positions (x,z) of the            3  receivers

 Receiver            1  =    0.0000000000000000        2500.0000000000000     
 Receiver            2  =    2500.0000000000000        2500.0000000000000     
 Receiver            3  =    2500.0000000000000        1500.0000000000000     

 This will be a parallel simulation on            4  processor cores


running solver on 4 processors...


 **********************************************
 **** Specfem 2-D Solver - MPI version     ****
 **********************************************

 Running Git version of the code corresponding to unknown
 dating unknown

 There are            4  MPI processes
 Processes are numbered from 0 to            3

 There is a total of            4  slices


 NDIM =            2

 NGLLX =            5
 NGLLZ =            5

 using single precision for the calculations

 smallest and largest possible floating-point numbers are:    1.17549435E-38   3.40282347E+38

 Reading the parameter file...

 Title of the simulation: Axisymmetric simulation

 Axisymmetric simulation

 Receiver lines:
   Nb of line sets =            3

 Parameter file successfully read 

 Reading in SOURCE file...

 Source           1
   Position xs, zs =    0.0000000000000000        2500.0000000000000     

   Source type:            1
   (1=force, 2=moment tensor)

   Force source:
   Angle of the source (deg) =    0.0000000000000000     

   Time function type:           1
   ( 0=Normalized Gaussian,  1=Ricker,          2=First derivative,  3=Gaussian,        4=Dirac,
     5=Heaviside,            6=Ocean type I,    7=Ocean type II,     8=Read from file,  9=Burst,
    10=Sinusoidal,          11=Ormsby,         12=Brune,            13=Smoothed Brune, 14=Yoffe,
    15=Integrated Yoffe )
   Ricker wavelet (second-derivative):
   Frequency, delay   =    3.0000000000000000        0.0000000000000000     
   Multiplying factor =    1.0000000000000000     

 all sources are okay



 -------------------------------------------------------------------------------
 -------------------------------------------------------------------------------
 Program SPECFEM2D: 
 -------------------------------------------------------------------------------
 -------------------------------------------------------------------------------
 Axisymmetric simulation
 -------------------------------------------------------------------------------
 -------------------------------------------------------------------------------
 D a t e : 04 - 07 - 2025                                 T i m e  : 13:00:30
 -------------------------------------------------------------------------------
 -------------------------------------------------------------------------------


 -----------------------------------------------------
 --- A x i s y m m e t r i c   S i m u l a t i o n ---
 -----------------------------------------------------


 C o n t r o l
 =============

     Number of spectral element control nodes. . .(npgeo) =   19764
     Number of space dimensions. . . . . . . . . . (NDIM) =       2


 C o n t r o l
 =============

     Display frequency . . . (NTSTEP_BETWEEN_OUTPUT_INFO) =    500
     Color display . . . . . . . . . . . . . . . (colors) =      1
      == 0     black and white display              
      == 1     color display                        
     Numbered mesh . . . . . . . . . . . . . . .(numbers) =      0
      == 0     do not number the mesh               
      == 1     number the mesh                      


 C o n t r o l
 =============

     Seismograms recording type . . . . . . .(seismotype) = 1,4
     Angle for first line of receivers. . . . .(anglerec) =   0.00


 C o n t r o l
 =============

     Read external initial field. . . . . .(initialfield) =      F
     Add Bielak conditions (add_Bielak_conditions_bottom) =      F
     Add Bielak conditions .(add_Bielak_conditions_right) =      F
     Add Bielak conditions . .(add_Bielak_conditions_top) =      F
     Add Bielak conditions. .(add_Bielak_conditions_left) =      F
     Attenuation in solid . . .(ATTENUATION_VISCOELASTIC) =      F
     Attenuation in fluid . . (ATTENUATION_VISCOACOUSTIC) =      F
     Save grid in ASCII file or not . (output_grid_ASCII) =      F
     Save a file with total energy or not.(OUTPUT_ENERGY) =      F


 C o n t r o l
 =============

     Vector display type . . . . . . . . .(imagetype_postscript) =      1
     Percentage of cut for vector plots. . . . . . . .(cutsnaps) =   1.00
     Subsampling of velocity model display. (subsamp_postscript) =      1


 I t e r a t i o n s 
 ===================

     Number of time iterations . . . . .(NSTEP) =    4500
     Time step increment. . . . . . . . . .(DT) =   6.000000E-04
     Total simulation duration . . . . . (ttot) =   2.700000E+00


 reading mesh databases:
 reading nodal coordinates...

 -- Spectral Elements --


     Number of spectral elements . . . . . . . . .  (nspec) =  19200
     Number of control nodes per element . . . . . (NGNOD) =      4
     Number of points in X-direction . . . . . . . (NGLLX) =      5
     Number of points in Y-direction . . . . . . . (NGLLZ) =      5
     Number of points per element. . . . . . (NGLLX*NGLLZ) =     25
     Number of points for display . . . . . . (pointsdisp) =      6
     Number of element material sets . . . . . . . (numat) =      1
     Number of acoustic forcing elements (nelem_acforcing) =      0
     Number of acoustic free surf (nelem_acoustic_surface) =      0

 reading attenuation setup...
 reading material properties..


 M a t e r i a l   s e t s :   2 D  (p o r o) e l a s t i c i t y
 ======================================================

     Number of material sets . . . . . . (numat) =     1


     ----------------------------------------
     -- Elastic (solid) isotropic material --
     ----------------------------------------
     Material set number. . . . . . . . (jmat) =     1
     P-wave velocity. . . . . . . . . . . (cp) = 3.40000000E+03
     S-wave velocity. . . . . . . . . . . (cs) = 1.96300000E+03
     Mass density. . . . . . . . . . (density) = 2.50000000E+03
     Poisson's ratio. . . . . . . . .(poisson) = 2.49996529E-01
     First Lame parameter Lambda. . . (lambda) = 9.63315500E+09
     Second Lame parameter Mu. . . . . . .(mu) = 9.63342250E+09
     Bulk modulus Kappa . . . . . . . .(kappa) = 1.60554367E+10
     Young's modulus E. . . . . . . . .(young) = 2.40834894E+10
     QKappa_attenuation .  . . . . . .(QKappa) = 9.99900000E+03
     Qmu_attenuation . . . . . . . . . . (Qmu) = 9.99900000E+03

 reading interfaces informations...
   number of interfaces         =            3

 reading absorbing boundary...
   Total number of absorbing elements =          440

   any absorbing boundary flag        =  T
   PML boundary flag                  =  T
   Stacey boundary flag               =  F


 Absorbing boundaries:
   using PML boundary conditions

 reading acoustic forcing...
   acoustic forcing                             =  F
   number of acoustic forcing boundary elements =            0

 reading free surface information...
   number of acoustic free surface boundary elements =            0

 reading coupling surfaces...
   number of fluid-solid edges  =            0
   number of fluid-poro  edges  =            0
   number of solid-poro  edges  =            0

 reading tangential curves...
   number of tangential curve nodes =            0

 reading axial elements...
   number of axial elements     =            0

  Total number of elements on the axis :          120


 done reading mesh databases


 Setting up mesh

 Generating global mesh numbering (fast version)...

 Mesh numbering:
   Total number of elements:        19200

   Total number of acoustic elements           =            0
   Total number of elastic/visco/poro elements =        19200

 Approximate total number of grid points in the mesh
 (with a few duplicates coming from MPI buffers):       309444

 Approximate number of acoustic degrees of freedom in the mesh:            0
 Approximate number of elastic degrees of freedom in the mesh:       618888
   (there are 2 degrees of freedom per point for elastic elements)

 Approximate total number of degrees of freedom in the mesh
 (sum of the two values above):       618888

  (for simplicity viscoelastic or poroelastic elements, if any,
   are counted as elastic in the above three estimates;
   in reality they have more degrees of freedom)

 Mesh dimensions:
   Xmin,Xmax of the whole mesh =    0.0000000000000000        6400.0000000000000     
   Zmin,Zmax of the whole mesh =    0.0000000000000000        4800.0000000000000     

 Material properties:
   MODEL                   : default
   nspec                   :        19200
   external velocity model :  F

   setting up material arrays
   elasticitiy:
     rho : min/max =    2500.00000     /   2500.00000    
     vs  : min/max =    1963.00000     /   1963.00000    
     vp  : min/max =    3400.00000     /   3400.00000    

   all material arrays done

   written file: ./OUTPUT_FILES/mesh00000_vs.vtk
   written file: ./OUTPUT_FILES/mesh00000_vp.vtk
   written file: ./OUTPUT_FILES/mesh00000_rho.vtk

 Domains:
   total number of acoustic elements        =            0
   total number of elastic elements         =        19200
   total number of poroelastic elements     =            0
   total number of electromagnetic elements =            0

 Setting up MPI communication arrays

   maximum number of MPI interfaces (for a single slice) =            3

   total MPI interface points:         2252

   main process:
   number of MPI interfaces in acoustic domain    =            0
   number of MPI interfaces in elastic domain     =            3
   number of MPI interfaces in poroelastic domain =            0
   number of MPI interfaces in electromagnetic domain =            0

   number of outer elements  =          127
   number of inner elements  =         3953

   percentage of outer elements    3.11274719     %
   percentage of inner elements    96.8872528     %

   number of global nodes in outer elements  =         2545
   number of global nodes in inner elements  =        63753

   determining communication phases:
   elastic domains:
   total number of outer/inner elements =          556       18644
   total percentage of outer elements    2.89583588     %
   total percentage of inner elements    97.1041641     %

 All mesh setup done successfully

 Sources
 =======

   Total number of sources:            1

   Setting parameters for source           1

     Source Type. . . . . . . . . . . . . . = Collocated Force
     X-position (meters). . . . . . . . . . =    0.0000000000E+00
     Y-position (meters). . . . . . . . . . =    2.5000000000E+03
     Fundamental frequency (Hz) . . . . . . =    3.0000000000E+00
     Time delay (s) . . . . . . . . . . . . =    0.0000000000E+00
     Multiplying factor . . . . . . . . . . =    1.0000000000E+00
     Angle from vertical direction (deg). . =    0.0000000000E+00

     Source time function
     Ricker wavelet (second-derivative)

 determining source onset times...
   simulation start time t0 =  -0.39999999999999997       s

   Source:            1
     Onset time. . . . . . =  -0.39999999999999997     
     Fundamental period. . =   0.33333333333333331     
     Fundamental frequency =    3.0000000000000000     
     The onset time is ok

 Source:            1
 *******************************
  locating force source
 *******************************

 Force source:
             original x:    0.00000000    
             original z:    2500.00000    
 Closest estimate found:    0.00000000      m away
  in rank            3
  in element          185
  in elastic domain
  at xi,gamma coordinates =   -1.0000000000000000        0.0000000000000000     


 end of force source detection


 receivers:

 Total number of receivers =            3


 ********************
  locating receivers
 ********************

 reading receiver information from the ./DATA/STATIONS file


 Station #            1     AA      S0001                           
             original x:    0.00000000    
             original z:    2500.00000    
 Closest estimate found:    0.00000000      m away
  in rank            3
  in element          185
  in elastic domain
  at xi,gamma coordinates =   -1.0000000000000000        0.0000000000000000     
 Distance from source:    0.00000000      m


 Station #            2     AA      S0002                           
             original x:    2500.00000    
             original z:    2500.00000    
 Closest estimate found:    0.00000000      m away
  in rank            3
  in element          247
  in elastic domain
  at xi,gamma coordinates =    0.0000000000000000        0.0000000000000000     
 Distance from source:    2500.00000      m


 Station #            3     AA      S0003                           
             original x:    2500.00000    
             original z:    1500.00000    
 Closest estimate found:    0.00000000      m away
  in rank            2
  in element         3467
  in elastic domain
  at xi,gamma coordinates =    0.0000000000000000        0.0000000000000000     
 Distance from source:    2692.58252      m

 maximum error in location of all the receivers:    0.00000000      m

 end of receiver detection

 found a total of            3  receivers, this is okay


 Preparing timerun:

 Movie simulation:
   color images         - JPEG image type:            3
   number of steps between outputs       :          100

 Preparing image coloring: jpeg
   allocating color image arrays
   locating all the pixels of color images
   total number of image pixels =       480000
   done locating all the pixels of color images
   coloring image background based on velocity

 Checking mesh and stability

 ********
 Model: P (or PI) velocity min,max =    3400.0000000000000        3400.0000000000000     
 Model: S velocity min,max         =    1962.9999832908813        1962.9999832908813     
 Model: density min,max            =    2500.0000000000000        2500.0000000000000     
 ********


 *********************************************
 *** Verification of simulation parameters ***
 *********************************************

 *** Max grid size =    40.000000000000455     
 *** Min grid size =    39.999999999999545     
 *** Max/min ratio =    1.0000000000000226     

 *** Minimum GLL point distance  =    6.9069265858403774     
 *** Average GLL point distance  =    9.9999999999998863     

 *** Minimum period resolved     =    2.5471217741009765E-002
 *** Maximum frequency resolved  =    39.259999665817183      Hz

 *** Maximum suggested time step                 =    1.0157244979177025E-003
 *** Maximum suggested (Ricker) source frequency =    15.703999866326875     

 *** for DT :    6.00000028E-04
 *** Max CFL stability condition of the time scheme based on P wave velocity (must be below about 0.50 or so) =   0.29535568022137731     

 ----
 Number of points per wavelength:
 ----
   Source            1
   maximum dominant source frequency =    7.5000000000000000      Hz


   Nb pts / lambdaP_fmax min =    45.3333321    
   Nb pts / lambdaP_fmax max =    45.3333321    

   Nb pts / lambdaS_fmax min =    26.1733322    
   Nb pts / lambdaS_fmax max =    26.1733322    

 -----------------------------------------

 histogram of min number of points per S wavelength in solid regions:

 there are        19200  elements out of        19200  in solid regions
   (i.e.,    100.000000     % of the total)

 (too small = poor resolution of calculations -
  too big = wasting memory and CPU time)
 (threshold value is around 4.5 points per S wavelength
  in elastic regions and 5.5 per P wavelength in fluid regions):

   25.9116001      -    25.9377728               0     0.00000000      %
   25.9377728      -    25.9639473               0     0.00000000      %
   25.9639473      -    25.9901199               0     0.00000000      %
   25.9901199      -    26.0162926               0     0.00000000      %
   26.0162926      -    26.0424671               0     0.00000000      %
   26.0424671      -    26.0686398               0     0.00000000      %
   26.0686398      -    26.0948124               0     0.00000000      %
   26.0948124      -    26.1209869               0     0.00000000      %
   26.1209869      -    26.1471596               0     0.00000000      %
   26.1471596      -    26.1733322             800     4.16666651      %
   26.1733322      -    26.1995068           18400     95.8333359      %
   26.1995068      -    26.2256794               0     0.00000000      %
   26.2256794      -    26.2518539               0     0.00000000      %
   26.2518539      -    26.2780266               0     0.00000000      %
   26.2780266      -    26.3041992               0     0.00000000      %
   26.3041992      -    26.3303738               0     0.00000000      %
   26.3303738      -    26.3565464               0     0.00000000      %
   26.3565464      -    26.3827190               0     0.00000000      %
   26.3827190      -    26.4088936               0     0.00000000      %
   26.4088936      -    26.4350662               0     0.00000000      %

 total percentage =    100.00000000000000       %


 total number of elements in fluid and solid regions =        19200

 mesh resolution output files:
   written file: ./OUTPUT_FILES/mesh00000_res_minimum_period.vtk
   written file: ./OUTPUT_FILES/mesh00000_res_dt_suggested.vtk

 Preparing timerun constants

 Preparing array allocations
   arrays for elastic domains
   done initialization


 Preparing PML
   rotate PML activated   : F
   backward reconstruction: F
   total number of PML spectral elements:         2150

   number of points on acoustic abs in this slice =            0
   number of points on  elastic abs in this slice =          513

   defining PML coefficients:
     using mesh dimension : xmin/xmax =    0.00000000     /   6400.00000    
                            zmin/zmax =    0.00000000     /   4800.00000    
     thickness PML: left   =    0.00000000    
                    right  =    200.000000    
                    bottom =    200.000000    
                    top    =    200.000000    
     maximum dominant frequency (sources):    3.00000000    
     PML coefficients all set

 Attenuation:
   viscoelastic  attenuation:  F (shear & bulk attenuation in elastic domains)
   viscoacoustic attenuation:  F (bulk attenuation in acoustic domains)
   poro-fluid    attenuation:  F (viscous attenuation in poroelastic domains)
   permittivity  attenuation:  F (for electromagnetic materials)

 Preparing mass matrices
   initializing mass matrices
   inverting mass matrices


 Preparing source time function
   time stepping scheme:   Newmark
   time stepping stages:            1
   time step size      :    6.00000028E-04

   number of time steps:         4500
   number of sources   :            1

   saving the source time function in a text file...

 preparing optimized arrays
   fused array done

 Elapsed time for preparing timerun in seconds =   0.13555199999999998     

 ************
  time loop
 ************
               scheme:         Newmark

            time step:    6.00000028E-04  s
 number of time steps:         4500
 total simulated time:    2.70000005      seconds
 start time: -0.400000006      seconds


 =========================================
 =  T i m e  e v o l u t i o n  l o o p  =
 =========================================


 Starting time iteration loop ...


 ******************************************************************
 Time step #       5 out of    4500
 ******************************************************************
 Time: -3.976000E-01 s
 We have done    8.89086500E-02 % of the total
 Max norm of vector field in solid (elastic) =    3.14331809E-17
 Elapsed time in seconds =    1.8000125885009766E-002
 Elapsed time in hh:mm:ss =      0 h 00 m 00 s
 Mean elapsed time per time step in seconds =    3.6000251770019532E-003
 Time steps remaining =         4495
 Estimated remaining time in seconds =    16.182113170623779     
 Estimated remaining time in hh:mm:ss =      0 h 00 m 16 s
 Estimated total run time in seconds =    16.200113296508789     
 Estimated total run time in hh:mm:ss =      0 h 00 m 16 s
 The run will finish approximately on: Fri Jul 04, 2025 13:01

 Creating color image of size          800  x          630  for time step            5
 drawing scalar image of the forward wavefield displacement...
 Color image maximum amplitude =    4.9629129452397351E-017
 Color image created

 Creating color image of size          800  x          630  for time step          100
 drawing scalar image of the forward wavefield displacement...
 Color image maximum amplitude =    3.0046799737951796E-015
 Color image created

 Creating color image of size          800  x          630  for time step          200
 drawing scalar image of the forward wavefield displacement...
 Color image maximum amplitude =    5.5415741440079103E-014
 Color image created

 Creating color image of size          800  x          630  for time step          300
 drawing scalar image of the forward wavefield displacement...
 Color image maximum amplitude =    4.7782529885923020E-013
 Color image created

 Creating color image of size          800  x          630  for time step          400
 drawing scalar image of the forward wavefield displacement...
 Color image maximum amplitude =    1.7316766510316883E-012
 Color image created


 ******************************************************************
 Time step #     500 out of    4500
 ******************************************************************
 Time: -1.006000E-01 s
 We have done    11.0913534     % of the total
 Max norm of vector field in solid (elastic) =    1.62168282E-12
 Elapsed time in seconds =    1.8229999542236328     
 Elapsed time in hh:mm:ss =      0 h 00 m 01 s
 Mean elapsed time per time step in seconds =    3.6459999084472658E-003
 Time steps remaining =         4000
 Estimated remaining time in seconds =    14.583999633789062     
 Estimated remaining time in hh:mm:ss =      0 h 00 m 14 s
 Estimated total run time in seconds =    16.406999588012695     
 Estimated total run time in hh:mm:ss =      0 h 00 m 16 s
 The run will finish approximately on: Fri Jul 04, 2025 13:01

 Creating color image of size          800  x          630  for time step          500
 drawing scalar image of the forward wavefield displacement...
 Color image maximum amplitude =    1.5973193904714189E-012
 Color image created

 Creating color image of size          800  x          630  for time step          600
 drawing scalar image of the forward wavefield displacement...
 Color image maximum amplitude =    2.8930659951020843E-012
 Color image created

 Creating color image of size          800  x          630  for time step          700
 drawing scalar image of the forward wavefield displacement...
 Color image maximum amplitude =    4.3840807720241237E-012
 Color image created

 Creating color image of size          800  x          630  for time step          800
 drawing scalar image of the forward wavefield displacement...
 Color image maximum amplitude =    2.8880118240447172E-013
 Color image created

 Creating color image of size          800  x          630  for time step          900
 drawing scalar image of the forward wavefield displacement...
 Color image maximum amplitude =    2.1110194755452616E-012
 Color image created


 ******************************************************************
 Time step #    1000 out of    4500
 ******************************************************************
 Time:    0.1994 s
 We have done    22.2049351     % of the total
 Max norm of vector field in solid (elastic) =    8.77950327E-13
 Elapsed time in seconds =    3.6660001277923584     
 Elapsed time in hh:mm:ss =      0 h 00 m 03 s
 Mean elapsed time per time step in seconds =    3.6660001277923583E-003
 Time steps remaining =         3500
 Estimated remaining time in seconds =    12.831000447273254     
 Estimated remaining time in hh:mm:ss =      0 h 00 m 12 s
 Estimated total run time in seconds =    16.497000575065613     
 Estimated total run time in hh:mm:ss =      0 h 00 m 16 s
 The run will finish approximately on: Fri Jul 04, 2025 13:01


 Total number of time steps done:         1000
 Writing the seismograms by main proc alone took    1.27039999E-02  seconds

 Creating color image of size          800  x          630  for time step         1000
 drawing scalar image of the forward wavefield displacement...
 Color image maximum amplitude =    8.6562690609220949E-013
 Color image created

 Creating color image of size          800  x          630  for time step         1100
 drawing scalar image of the forward wavefield displacement...
 Color image maximum amplitude =    1.3625094162725976E-013
 Color image created

 Creating color image of size          800  x          630  for time step         1200
 drawing scalar image of the forward wavefield displacement...
 Color image maximum amplitude =    1.2409634917701132E-014
 Color image created

 Creating color image of size          800  x          630  for time step         1300
 drawing scalar image of the forward wavefield displacement...
 Color image maximum amplitude =    1.0712848353365849E-014
 Color image created

 Creating color image of size          800  x          630  for time step         1400
 drawing scalar image of the forward wavefield displacement...
 Color image maximum amplitude =    9.3875289350819570E-015
 Color image created


 ******************************************************************
 Time step #    1500 out of    4500
 ******************************************************************
 Time:    0.4994 s
 We have done    33.3185158     % of the total
 Max norm of vector field in solid (elastic) =    8.33232155E-15
 Elapsed time in seconds =    5.5210001468658447     
 Elapsed time in hh:mm:ss =      0 h 00 m 05 s
 Mean elapsed time per time step in seconds =    3.6806667645772296E-003
 Time steps remaining =         3000
 Estimated remaining time in seconds =    11.042000293731689     
 Estimated remaining time in hh:mm:ss =      0 h 00 m 11 s
 Estimated total run time in seconds =    16.563000440597534     
 Estimated total run time in hh:mm:ss =      0 h 00 m 16 s
 The run will finish approximately on: Fri Jul 04, 2025 13:01

 Creating color image of size          800  x          630  for time step         1500
 drawing scalar image of the forward wavefield displacement...
 Color image maximum amplitude =    8.3256350693283191E-015
 Color image created

 Creating color image of size          800  x          630  for time step         1600
 drawing scalar image of the forward wavefield displacement...
 Color image maximum amplitude =    7.4624517448687037E-015
 Color image created

 Creating color image of size          800  x          630  for time step         1700
 drawing scalar image of the forward wavefield displacement...
 Color image maximum amplitude =    6.7521011161810321E-015
 Color image created

 Creating color image of size          800  x          630  for time step         1800
 drawing scalar image of the forward wavefield displacement...
 Color image maximum amplitude =    6.1634720866291567E-015
 Color image created

 Creating color image of size          800  x          630  for time step         1900
 drawing scalar image of the forward wavefield displacement...
 Color image maximum amplitude =    5.6699767155151409E-015
 Color image created


 ******************************************************************
 Time step #    2000 out of    4500
 ******************************************************************
 Time:    0.7994 s
 We have done    44.4320946     % of the total
 Max norm of vector field in solid (elastic) =    5.25156404E-15
 Elapsed time in seconds =    7.3750000000000000     
 Elapsed time in hh:mm:ss =      0 h 00 m 07 s
 Mean elapsed time per time step in seconds =    3.6874999999999998E-003
 Time steps remaining =         2500
 Estimated remaining time in seconds =    9.2187500000000000     
 Estimated remaining time in hh:mm:ss =      0 h 00 m 09 s
 Estimated total run time in seconds =    16.593750000000000     
 Estimated total run time in hh:mm:ss =      0 h 00 m 16 s
 The run will finish approximately on: Fri Jul 04, 2025 13:01


 Total number of time steps done:         2000
 Writing the seismograms by main proc alone took    1.08620003E-02  seconds

 Creating color image of size          800  x          630  for time step         2000
 drawing scalar image of the forward wavefield displacement...
 Color image maximum amplitude =    5.2481229675634493E-015
 Color image created

 Creating color image of size          800  x          630  for time step         2100
 drawing scalar image of the forward wavefield displacement...
 Color image maximum amplitude =    4.8829755343316040E-015
 Color image created

 Creating color image of size          800  x          630  for time step         2200
 drawing scalar image of the forward wavefield displacement...
 Color image maximum amplitude =    4.5633688275089737E-015
 Color image created

 Creating color image of size          800  x          630  for time step         2300
 drawing scalar image of the forward wavefield displacement...
 Color image maximum amplitude =    4.2868481456143863E-015
 Color image created

 Creating color image of size          800  x          630  for time step         2400
 drawing scalar image of the forward wavefield displacement...
 Color image maximum amplitude =    4.0413868913457870E-015
 Color image created


 ******************************************************************
 Time step #    2500 out of    4500
 ******************************************************************
 Time:    1.0994 s
 We have done    55.5456772     % of the total
 Max norm of vector field in solid (elastic) =    3.82155558E-15
 Elapsed time in seconds =    9.2509999275207520     
 Elapsed time in hh:mm:ss =      0 h 00 m 09 s
 Mean elapsed time per time step in seconds =    3.7003999710083007E-003
 Time steps remaining =         2000
 Estimated remaining time in seconds =    7.4007999420166017     
 Estimated remaining time in hh:mm:ss =      0 h 00 m 07 s
 Estimated total run time in seconds =    16.651799869537353     
 Estimated total run time in hh:mm:ss =      0 h 00 m 16 s
 The run will finish approximately on: Fri Jul 04, 2025 13:01

 Creating color image of size          800  x          630  for time step         2500
 drawing scalar image of the forward wavefield displacement...
 Color image maximum amplitude =    3.8208648281482226E-015
 Color image created

 Creating color image of size          800  x          630  for time step         2600
 drawing scalar image of the forward wavefield displacement...
 Color image maximum amplitude =    3.6213661228950862E-015
 Color image created

 Creating color image of size          800  x          630  for time step         2700
 drawing scalar image of the forward wavefield displacement...
 Color image maximum amplitude =    3.4398524721384106E-015
 Color image created

 Creating color image of size          800  x          630  for time step         2800
 drawing scalar image of the forward wavefield displacement...
 Color image maximum amplitude =    3.2812117826168051E-015
 Color image created

 Creating color image of size          800  x          630  for time step         2900
 drawing scalar image of the forward wavefield displacement...
 Color image maximum amplitude =    3.1375728752704768E-015
 Color image created


 ******************************************************************
 Time step #    3000 out of    4500
 ******************************************************************
 Time:    1.3994 s
 We have done    66.6592560     % of the total
 Max norm of vector field in solid (elastic) =    3.00773099E-15
 Elapsed time in seconds =    11.110000133514404     
 Elapsed time in hh:mm:ss =      0 h 00 m 11 s
 Mean elapsed time per time step in seconds =    3.7033333778381350E-003
 Time steps remaining =         1500
 Estimated remaining time in seconds =    5.5550000667572021     
 Estimated remaining time in hh:mm:ss =      0 h 00 m 05 s
 Estimated total run time in seconds =    16.665000200271606     
 Estimated total run time in hh:mm:ss =      0 h 00 m 16 s
 The run will finish approximately on: Fri Jul 04, 2025 13:01


 Total number of time steps done:         3000
 Writing the seismograms by main proc alone took    1.15630003E-02  seconds

 Creating color image of size          800  x          630  for time step         3000
 drawing scalar image of the forward wavefield displacement...
 Color image maximum amplitude =    3.0058930908711512E-015
 Color image created

 Creating color image of size          800  x          630  for time step         3100
 drawing scalar image of the forward wavefield displacement...
 Color image maximum amplitude =    2.8829539844440476E-015
 Color image created

 Creating color image of size          800  x          630  for time step         3200
 drawing scalar image of the forward wavefield displacement...
 Color image maximum amplitude =    2.7669910266442451E-015
 Color image created

 Creating color image of size          800  x          630  for time step         3300
 drawing scalar image of the forward wavefield displacement...
 Color image maximum amplitude =    2.6580511335400323E-015
 Color image created

 Creating color image of size          800  x          630  for time step         3400
 drawing scalar image of the forward wavefield displacement...
 Color image maximum amplitude =    2.5617306654332438E-015
 Color image created


 ******************************************************************
 Time step #    3500 out of    4500
 ******************************************************************
 Time:    1.6994 s
 We have done    77.7728348     % of the total
 Max norm of vector field in solid (elastic) =    2.47430415E-15
 Elapsed time in seconds =    12.966000080108643     
 Elapsed time in hh:mm:ss =      0 h 00 m 12 s
 Mean elapsed time per time step in seconds =    3.7045714514596121E-003
 Time steps remaining =         1000
 Estimated remaining time in seconds =    3.7045714514596120     
 Estimated remaining time in hh:mm:ss =      0 h 00 m 03 s
 Estimated total run time in seconds =    16.670571531568253     
 Estimated total run time in hh:mm:ss =      0 h 00 m 16 s
 The run will finish approximately on: Fri Jul 04, 2025 13:01

 Creating color image of size          800  x          630  for time step         3500
 drawing scalar image of the forward wavefield displacement...
 Color image maximum amplitude =    2.4730865944780387E-015
 Color image created

 Creating color image of size          800  x          630  for time step         3600
 drawing scalar image of the forward wavefield displacement...
 Color image maximum amplitude =    2.3898966507111560E-015
 Color image created

 Creating color image of size          800  x          630  for time step         3700
 drawing scalar image of the forward wavefield displacement...
 Color image maximum amplitude =    2.3133411435611868E-015
 Color image created

 Creating color image of size          800  x          630  for time step         3800
 drawing scalar image of the forward wavefield displacement...
 Color image maximum amplitude =    2.2408668460873235E-015
 Color image created

 Creating color image of size          800  x          630  for time step         3900
 drawing scalar image of the forward wavefield displacement...
 Color image maximum amplitude =    2.1720611941858804E-015
 Color image created


 ******************************************************************
 Time step #    4000 out of    4500
 ******************************************************************
 Time:    1.9994 s
 We have done    88.8864212     % of the total
 Max norm of vector field in solid (elastic) =    2.10771613E-15
 Elapsed time in seconds =    14.805999994277954     
 Elapsed time in hh:mm:ss =      0 h 00 m 14 s
 Mean elapsed time per time step in seconds =    3.7014999985694884E-003
 Time steps remaining =          500
 Estimated remaining time in seconds =    1.8507499992847443     
 Estimated remaining time in hh:mm:ss =      0 h 00 m 01 s
 Estimated total run time in seconds =    16.656749993562698     
 Estimated total run time in hh:mm:ss =      0 h 00 m 16 s
 The run will finish approximately on: Fri Jul 04, 2025 13:01


 Total number of time steps done:         4000
 Writing the seismograms by main proc alone took    1.14580002E-02  seconds

 Creating color image of size          800  x          630  for time step         4000
 drawing scalar image of the forward wavefield displacement...
 Color image maximum amplitude =    2.1069913303434102E-015
 Color image created

 Creating color image of size          800  x          630  for time step         4100
 drawing scalar image of the forward wavefield displacement...
 Color image maximum amplitude =    2.0443774871270052E-015
 Color image created

 Creating color image of size          800  x          630  for time step         4200
 drawing scalar image of the forward wavefield displacement...
 Color image maximum amplitude =    1.9838317684634203E-015
 Color image created

 Creating color image of size          800  x          630  for time step         4300
 drawing scalar image of the forward wavefield displacement...
 Color image maximum amplitude =    1.9282963104217385E-015
 Color image created

 Creating color image of size          800  x          630  for time step         4400
 drawing scalar image of the forward wavefield displacement...
 Color image maximum amplitude =    1.8752410266177745E-015
 Color image created


 ******************************************************************
 Time step #    4500 out of    4500
 ******************************************************************
 Time:    2.2994 s
 We have done    100.000000     % of the total
 Max norm of vector field in solid (elastic) =    1.82367210E-15
 Elapsed time in seconds =    16.664000034332275     
 Elapsed time in hh:mm:ss =      0 h 00 m 16 s
 Mean elapsed time per time step in seconds =    3.7031111187405055E-003
 Time steps remaining =            0
 Estimated remaining time in seconds =    0.0000000000000000     
 Estimated remaining time in hh:mm:ss =      0 h 00 m 00 s
 Estimated total run time in seconds =    16.664000034332275     
 Estimated total run time in hh:mm:ss =      0 h 00 m 16 s


 Total number of time steps done:         4500
 Writing the seismograms by main proc alone took    6.48400001E-03  seconds

 Creating color image of size          800  x          630  for time step         4500
 drawing scalar image of the forward wavefield displacement...
 Color image maximum amplitude =    1.8240987050212981E-015
 Color image created


 Time loop finished. Timing info:
 Total duration of the time loop in seconds  =    16.6798801      s
 Total duration of the time loop in hh:mm:ss =      0 h 00 m 16 s

 Total number of time steps =         4500
 Average duration of a time step of the time loop =    3.70664010E-03  s

 Total number of spectral elements in the mesh =        19200
     of which        17050  are regular elements
     and         2150  are PML elements.
 Average duration of the calculation per spectral element =    1.93054163E-07  s


 Total duration of the timeloop measured using date and time of the system
     in seconds     =    16.6830006      s
     in in hh:mm:ss =      0 h 00 m 16 s



 -------------------------------------------------------------------------------
 -------------------------------------------------------------------------------
 Program SPECFEM2D: 
 -------------------------------------------------------------------------------
 -------------------------------------------------------------------------------
 Axisymmetric simulation
 -------------------------------------------------------------------------------
 -------------------------------------------------------------------------------
 D a t e : 04 - 07 - 2025                                 T i m e  : 13:00:47
 -------------------------------------------------------------------------------
 -------------------------------------------------------------------------------

see results in directory: OUTPUT_FILES/

done
Fri Jul 4 13:00:47 CEST 2025
